

        *** GPGPU-Sim Simulator Version 3.2.2  [build 0] ***


GPGPU-Sim PTX: simulation mode 0 (can change with PTX_SIM_MODE_FUNC environment variable:
               1=functional simulation only, 0=detailed performance simulator)
GPGPU-Sim: Configuration options:

-network_mode                           1 # Interconnection network mode
-inter_config_file   config_fermi_islip.icnt # Interconnection network config file
-gpgpu_ptx_use_cuobjdump                    1 # Use cuobjdump to extract ptx and sass from binaries
-gpgpu_experimental_lib_support                    0 # Try to extract code from cuda libraries [Broken because of unknown cudaGetExportTable]
-gpgpu_ptx_convert_to_ptxplus                    0 # Convert SASS (native ISA) to ptxplus and run ptxplus
-gpgpu_ptx_force_max_capability                   20 # Force maximum compute capability
-gpgpu_ptx_inst_debug_to_file                    0 # Dump executed instructions' debug information to file
-gpgpu_ptx_inst_debug_file       inst_debug.txt # Executed instructions' debug output file
-gpgpu_ptx_inst_debug_thread_uid                    1 # Thread UID for executed instructions' debug output
-gpgpu_simd_model                       1 # 1 = post-dominator
-gpgpu_shader_core_pipeline              1536:32 # shader core pipeline config, i.e., {<nthread>:<warpsize>}
-gpgpu_tex_cache:l1  4:128:24,L:R:m:N:L,F:128:4,128:2 # per-shader L1 texture cache  (READ-ONLY) config  {<nsets>:<bsize>:<assoc>,<rep>:<wr>:<alloc>:<wr_alloc>,<mshr>:<N>:<merge>,<mq>:<rf>}
-gpgpu_const_cache:l1 64:64:2,L:R:f:N:L,A:2:32,4 # per-shader L1 constant memory cache  (READ-ONLY) config  {<nsets>:<bsize>:<assoc>,<rep>:<wr>:<alloc>:<wr_alloc>,<mshr>:<N>:<merge>,<mq>} 
-gpgpu_cache:il1     4:128:4,L:R:f:N:L,A:2:32,4 # shader L1 instruction cache config  {<nsets>:<bsize>:<assoc>,<rep>:<wr>:<alloc>:<wr_alloc>,<mshr>:<N>:<merge>,<mq>} 
-gpgpu_cache:dl1     32:128:4,L:L:m:N:H,A:32:8,8 # per-shader L1 data cache config  {<nsets>:<bsize>:<assoc>,<rep>:<wr>:<alloc>:<wr_alloc>,<mshr>:<N>:<merge>,<mq> | none}
-gpgpu_cache:dl1PrefL1                 none # per-shader L1 data cache config  {<nsets>:<bsize>:<assoc>,<rep>:<wr>:<alloc>:<wr_alloc>,<mshr>:<N>:<merge>,<mq> | none}
-gpgpu_cache:dl1PreShared                 none # per-shader L1 data cache config  {<nsets>:<bsize>:<assoc>,<rep>:<wr>:<alloc>:<wr_alloc>,<mshr>:<N>:<merge>,<mq> | none}
-gmem_skip_L1D                          0 # global memory access skip L1D cache (implements -Xptxas -dlcm=cg, default=no skip)
-gpgpu_perfect_mem                      0 # enable perfect memory mode (no cache miss)
-n_regfile_gating_group                    4 # group of lanes that should be read/written together)
-gpgpu_clock_gated_reg_file                    0 # enable clock gated reg file for power calculations
-gpgpu_clock_gated_lanes                    0 # enable clock gated lanes for power calculations
-gpgpu_shader_registers                32768 # Number of registers per shader core. Limits number of concurrent CTAs. (default 8192)
-gpgpu_shader_cta                       8 # Maximum number of concurrent CTAs in shader (default 8)
-gpgpu_num_cta_barriers                   16 # Maximum number of named barriers per CTA (default 16)
-gpgpu_n_clusters                      15 # number of processing clusters
-gpgpu_n_cores_per_cluster                    1 # number of simd cores per cluster
-gpgpu_n_cluster_ejection_buffer_size                    8 # number of packets in ejection buffer
-gpgpu_n_ldst_response_buffer_size                    2 # number of response packets in ld/st unit ejection buffer
-gpgpu_shmem_size                   16384 # Size of shared memory per shader core (default 16kB)
-gpgpu_shmem_size                   49152 # Size of shared memory per shader core (default 16kB)
-gpgpu_shmem_size_PrefL1                16384 # Size of shared memory per shader core (default 16kB)
-gpgpu_shmem_size_PrefShared                16384 # Size of shared memory per shader core (default 16kB)
-gpgpu_shmem_num_banks                   32 # Number of banks in the shared memory in each shader core (default 16)
-gpgpu_shmem_limited_broadcast                    0 # Limit shared memory to do one broadcast per cycle (default on)
-gpgpu_shmem_warp_parts                    1 # Number of portions a warp is divided into for shared memory bank conflict check 
-gpgpu_warpdistro_shader                   -1 # Specify which shader core to collect the warp size distribution from
-gpgpu_warp_issue_shader                    0 # Specify which shader core to collect the warp issue distribution from
-gpgpu_local_mem_map                    1 # Mapping from local memory space address to simulated GPU physical address space (default = enabled)
-gpgpu_num_reg_banks                   16 # Number of register banks (default = 8)
-gpgpu_reg_bank_use_warp_id                    0 # Use warp ID in mapping registers to banks (default = off)
-gpgpu_operand_collector_num_units_sp                    6 # number of collector units (default = 4)
-gpgpu_operand_collector_num_units_sfu                    8 # number of collector units (default = 4)
-gpgpu_operand_collector_num_units_mem                    2 # number of collector units (default = 2)
-gpgpu_operand_collector_num_units_gen                    0 # number of collector units (default = 0)
-gpgpu_operand_collector_num_in_ports_sp                    2 # number of collector unit in ports (default = 1)
-gpgpu_operand_collector_num_in_ports_sfu                    1 # number of collector unit in ports (default = 1)
-gpgpu_operand_collector_num_in_ports_mem                    1 # number of collector unit in ports (default = 1)
-gpgpu_operand_collector_num_in_ports_gen                    0 # number of collector unit in ports (default = 0)
-gpgpu_operand_collector_num_out_ports_sp                    2 # number of collector unit in ports (default = 1)
-gpgpu_operand_collector_num_out_ports_sfu                    1 # number of collector unit in ports (default = 1)
-gpgpu_operand_collector_num_out_ports_mem                    1 # number of collector unit in ports (default = 1)
-gpgpu_operand_collector_num_out_ports_gen                    0 # number of collector unit in ports (default = 0)
-gpgpu_coalesce_arch                   13 # Coalescing arch (default = 13, anything else is off for now)
-gpgpu_num_sched_per_core                    2 # Number of warp schedulers per core
-gpgpu_max_insn_issue_per_warp                    1 # Max number of instructions that can be issued per warp in one cycle by scheduler
-gpgpu_simt_core_sim_order                    1 # Select the simulation order of cores in a cluster (0=Fix, 1=Round-Robin)
-gpgpu_pipeline_widths        2,1,1,2,1,1,2 # Pipeline widths ID_OC_SP,ID_OC_SFU,ID_OC_MEM,OC_EX_SP,OC_EX_SFU,OC_EX_MEM,EX_WB
-gpgpu_num_sp_units                     2 # Number of SP units (default=1)
-gpgpu_num_sfu_units                    1 # Number of SF units (default=1)
-gpgpu_num_mem_units                    1 # Number if ldst units (default=1) WARNING: not hooked up to anything
-gpgpu_scheduler                      gto # Scheduler configuration: < lrr | gto | two_level_active > If two_level_active:<num_active_warps>:<inner_prioritization>:<outer_prioritization>For complete list of prioritization values see shader.h enum scheduler_prioritization_typeDefault: gto
-gpgpu_dram_scheduler                    1 # 0 = fifo, 1 = FR-FCFS (defaul)
-gpgpu_dram_partition_queues              8:8:8:8 # i2$:$2d:d2$:$2i
-l2_ideal                               0 # Use a ideal L2 cache that always hit
-gpgpu_cache:dl2     64:128:8,L:B:m:W:L,A:32:4,4:0,32 # unified banked L2 data cache config  {<nsets>:<bsize>:<assoc>,<rep>:<wr>:<alloc>:<wr_alloc>,<mshr>:<N>:<merge>,<mq>}
-gpgpu_cache:dl2_texture_only                    0 # L2 cache used for texture only
-gpgpu_n_mem                            6 # number of memory modules (e.g. memory controllers) in gpu
-gpgpu_n_sub_partition_per_mchannel                    2 # number of memory subpartition in each memory module
-gpgpu_n_mem_per_ctrlr                    2 # number of memory chips per memory controller
-gpgpu_memlatency_stat                   14 # track and display latency statistics 0x2 enables MC, 0x4 enables queue logs
-gpgpu_frfcfs_dram_sched_queue_size                   16 # 0 = unlimited (default); # entries per chip
-gpgpu_dram_return_queue_size                  116 # 0 = unlimited (default); # entries per chip
-gpgpu_dram_buswidth                    4 # default = 4 bytes (8 bytes per cycle at DDR)
-gpgpu_dram_burst_length                    8 # Burst length of each DRAM request (default = 4 data bus cycle)
-dram_data_command_freq_ratio                    4 # Frequency ratio between DRAM data bus and command bus (default = 2 times, i.e. DDR)
-gpgpu_dram_timing_opt nbk=16:CCD=2:RRD=6:RCD=12:RAS=28:RP=12:RC=40: CL=12:WL=4:CDLR=5:WR=12:nbkgrp=4:CCDL=3:RTPL=2 # DRAM timing parameters = {nbk:tCCD:tRRD:tRCD:tRAS:tRP:tRC:CL:WL:tCDLR:tWR:nbkgrp:tCCDL:tRTPL}
-rop_latency                          120 # ROP queue latency (default 85)
-dram_latency                         100 # DRAM latency (default 30)
-gpgpu_mem_addr_mapping dramid@8;00000000.00000000.00000000.00000000.0000RRRR.RRRRRRRR.BBBCCCCB.CCSSSSSS # mapping memory address to dram model {dramid@<start bit>;<memory address map>}
-gpgpu_mem_addr_test                    0 # run sweep test to check address mapping for aliased address
-gpgpu_mem_address_mask                    1 # 0 = old addressing mask, 1 = new addressing mask, 2 = new add. mask + flipped bank sel and chip sel bits
-gpuwattch_xml_file  gpuwattch_gtx480.xml # GPUWattch XML file
-power_simulation_enabled                    1 # Turn on power simulator (1=On, 0=Off)
-power_per_cycle_dump                    0 # Dump detailed power output each cycle
-power_trace_enabled                    0 # produce a file for the power trace (1=On, 0=Off)
-power_trace_zlevel                     6 # Compression level of the power trace output log (0=no comp, 9=highest)
-steady_power_levels_enabled                    0 # produce a file for the steady power levels (1=On, 0=Off)
-steady_state_definition                  8:4 # allowed deviation:number of samples
-gpgpu_max_cycle                        0 # terminates gpu simulation early (0 = no limit)
-gpgpu_max_insn                         0 # terminates gpu simulation early (0 = no limit)
-gpgpu_max_cta                          0 # terminates gpu simulation early (0 = no limit)
-gpgpu_runtime_stat                   500 # display runtime statistics such as dram utilization {<freq>:<flag>}
-liveness_message_freq                    1 # Minimum number of seconds between simulation liveness messages (0 = always print)
-gpgpu_flush_l1_cache                    0 # Flush L1 cache at the end of each kernel call
-gpgpu_flush_l2_cache                    0 # Flush L2 cache at the end of each kernel call
-gpgpu_deadlock_detect                    1 # Stop the simulation at deadlock (1=on (default), 0=off)
-gpgpu_ptx_instruction_classification                    0 # if enabled will classify ptx instruction types per kernel (Max 255 kernels now)
-gpgpu_ptx_sim_mode                     0 # Select between Performance (default) or Functional simulation (1)
-gpgpu_clock_domains 700.0:700.0:700.0:924.0 # Clock Domain Frequencies in MhZ {<Core Clock>:<ICNT Clock>:<L2 Clock>:<DRAM Clock>}
-gpgpu_max_concurrent_kernel                    8 # maximum kernels that can run concurrently on GPU
-gpgpu_cflog_interval                    0 # Interval between each snapshot in control flow logger
-visualizer_enabled                     0 # Turn on visualizer output (1=On, 0=Off)
-visualizer_outputfile                 NULL # Specifies the output log file for visualizer
-visualizer_zlevel                      6 # Compression level of the visualizer output log (0=no comp, 9=highest)
-trace_enabled                          0 # Turn on traces
-trace_components                    none # comma seperated list of traces to enable. Complete list found in trace_streams.tup. Default none
-trace_sampling_core                    0 # The core which is printed using CORE_DPRINTF. Default 0
-trace_sampling_memory_partition                   -1 # The memory partition which is printed using MEMPART_DPRINTF. Default -1 (i.e. all)
-enable_ptx_file_line_stats                    1 # Turn on PTX source line statistic profiling. (1 = On)
-ptx_line_stats_filename gpgpu_inst_stats.txt # Output file for PTX source line statistics.
-save_embedded_ptx                      0 # saves ptx files embedded in binary as <n>.ptx
-keep                                   0 # keep intermediate files created by GPGPU-Sim when interfacing with external programs
-gpgpu_ptx_save_converted_ptxplus                    0 # Saved converted ptxplus to a file
-ptx_opcode_latency_int         4,13,4,5,145 # Opcode latencies for integers <ADD,MAX,MUL,MAD,DIV>Default 1,1,19,25,145
-ptx_opcode_latency_fp          4,13,4,5,39 # Opcode latencies for single precision floating points <ADD,MAX,MUL,MAD,DIV>Default 1,1,1,1,30
-ptx_opcode_latency_dp         8,19,8,8,330 # Opcode latencies for double precision floating points <ADD,MAX,MUL,MAD,DIV>Default 8,8,8,8,335
-ptx_opcode_initiation_int            1,2,2,1,8 # Opcode initiation intervals for integers <ADD,MAX,MUL,MAD,DIV>Default 1,1,4,4,32
-ptx_opcode_initiation_fp            1,2,1,1,4 # Opcode initiation intervals for single precision floating points <ADD,MAX,MUL,MAD,DIV>Default 1,1,1,1,5
-ptx_opcode_initiation_dp         8,16,8,8,130 # Opcode initiation intervals for double precision floating points <ADD,MAX,MUL,MAD,DIV>Default 8,8,8,8,130
DRAM Timing Options:
nbk                                    16 # number of banks
CCD                                     2 # column to column delay
RRD                                     6 # minimal delay between activation of rows in different banks
RCD                                    12 # row to column delay
RAS                                    28 # time needed to activate row
RP                                     12 # time needed to precharge (deactivate) row
RC                                     40 # row cycle time
CDLR                                    5 # switching from write to read (changes tWTR)
WR                                     12 # last data-in to row precharge
CL                                     12 # CAS latency
WL                                      4 # Write latency
nbkgrp                                  4 # number of bank groups
CCDL                                    3 # column to column delay between accesses to different bank groups
RTPL                                    2 # read to precharge delay between accesses to different bank groups
Total number of memory sub partition = 12
addr_dec_mask[CHIP]  = 0000000000000000 	high:64 low:0
addr_dec_mask[BK]    = 000000000000e100 	high:16 low:8
addr_dec_mask[ROW]   = 000000000fff0000 	high:28 low:16
addr_dec_mask[COL]   = 0000000000001eff 	high:13 low:0
addr_dec_mask[BURST] = 000000000000003f 	high:6 low:0
sub_partition_id_mask = 0000000000000100
GPGPU-Sim uArch: clock freqs: 700000000.000000:700000000.000000:700000000.000000:924000000.000000
GPGPU-Sim uArch: clock periods: 0.00000000142857142857:0.00000000142857142857:0.00000000142857142857:0.00000000108225108225
*** Initializing Memory Statistics ***
GPGPU-Sim uArch: interconnect node map (shaderID+MemID to icntID)
GPGPU-Sim uArch: Memory nodes ID start from index: 15
GPGPU-Sim uArch:    0   1   2   3   4
GPGPU-Sim uArch:    5   6   7   8   9
GPGPU-Sim uArch:   10  11  12  13  14
GPGPU-Sim uArch:   15  16  17  18  19
GPGPU-Sim uArch:   20  21  22  23  24
GPGPU-Sim uArch:   25  26
GPGPU-Sim uArch: interconnect node reverse map (icntID to shaderID+MemID)
GPGPU-Sim uArch: Memory nodes start from ID: 15
GPGPU-Sim uArch:    0   1   2   3   4
GPGPU-Sim uArch:    5   6   7   8   9
GPGPU-Sim uArch:   10  11  12  13  14
GPGPU-Sim uArch:   15  16  17  18  19
GPGPU-Sim uArch:   20  21  22  23  24
GPGPU-Sim uArch:   25  26
de1b86e11034d31216b507f36b6d58dd  /root/lab1/GPUlab1-naive/reduction
GPGPU-Sim uArch: performance model initialization complete.
GPGPU-Sim PTX: __cudaRegisterFatBinary, fat_cubin_handle = 1, filename=main.cu
self exe links to: /root/lab1/GPUlab1-naive/reduction
Running md5sum using "md5sum /root/lab1/GPUlab1-naive/reduction "
Running cuobjdump using "$CUDA_INSTALL_PATH/bin/cuobjdump -ptx -elf -sass /root/lab1/GPUlab1-naive/reduction > _cuobjdump_complete_output_H2yBl2"
Parsing file _cuobjdump_complete_output_H2yBl2
######### cuobjdump parser ########
## Adding new section ELF
Adding arch: sm_10
Adding identifier: main.cu
## Adding new section PTX
Adding ptx filename: _cuobjdump_1.ptx
Adding arch: sm_10
Adding identifier: main.cu
## Adding new section ELF
Adding arch: sm_10
Adding identifier: support.cu
## Adding new section PTX
Adding ptx filename: _cuobjdump_2.ptx
Adding arch: sm_10
Adding identifier: support.cu
Done parsing!!!
GPGPU-Sim PTX: __cudaRegisterFunction _Z9reductionPfS_j : hostFun 0x0x400f10, fat_cubin_handle = 1
GPGPU-Sim PTX: allocating shared region for "__cuda___cuda_local_var_16314_59_non_const_partialsum20" from 0x0 to 0x1000 (shared memory space)
GPGPU-Sim PTX: instruction assembly for function '_Z9reductionPfS_j'...   done.
GPGPU-Sim PTX: finding reconvergence points for '_Z9reductionPfS_j'...
GPGPU-Sim PTX: Finding dominators for '_Z9reductionPfS_j'...
GPGPU-Sim PTX: Finding immediate dominators for '_Z9reductionPfS_j'...
GPGPU-Sim PTX: Finding postdominators for '_Z9reductionPfS_j'...
GPGPU-Sim PTX: Finding immediate postdominators for '_Z9reductionPfS_j'...
GPGPU-Sim PTX: pre-decoding instructions for '_Z9reductionPfS_j'...
GPGPU-Sim PTX: reconvergence points for _Z9reductionPfS_j...
GPGPU-Sim PTX:  1 (potential) branch divergence @  PC=0x060 (_1.ptx:73) @%p1 bra $Lt_0_3842;
GPGPU-Sim PTX:    immediate post dominator      @  PC=0x0b0 (_1.ptx:87) add.u32 %r8, %r4, %r1;
GPGPU-Sim PTX:  2 (potential) branch divergence @  PC=0x098 (_1.ptx:81) bra.uni $Lt_0_3586;
GPGPU-Sim PTX:    immediate post dominator      @  PC=0x0b0 (_1.ptx:87) add.u32 %r8, %r4, %r1;
GPGPU-Sim PTX:  3 (potential) branch divergence @  PC=0x0e8 (_1.ptx:96) @%p2 bra $Lt_0_4354;
GPGPU-Sim PTX:    immediate post dominator      @  PC=0x138 (_1.ptx:110) mov.u32 %r10, 1;
GPGPU-Sim PTX:  4 (potential) branch divergence @  PC=0x120 (_1.ptx:104) bra.uni $Lt_0_4098;
GPGPU-Sim PTX:    immediate post dominator      @  PC=0x138 (_1.ptx:110) mov.u32 %r10, 1;
GPGPU-Sim PTX:  5 (potential) branch divergence @  PC=0x148 (_1.ptx:112) @%p3 bra $Lt_0_4610;
GPGPU-Sim PTX:    immediate post dominator      @  PC=0x200 (_1.ptx:144) ld.shared.f32 %f8, [__cuda___cuda_local_var_16314_59_non_const_partialsum20+0];
GPGPU-Sim PTX:  6 (potential) branch divergence @  PC=0x178 (_1.ptx:121) @%p4 bra $Lt_0_5378;
GPGPU-Sim PTX:    immediate post dominator      @  PC=0x1e0 (_1.ptx:137) bar.sync 0;
GPGPU-Sim PTX:  7 (potential) branch divergence @  PC=0x1f8 (_1.ptx:141) @%p5 bra $Lt_0_5122;
GPGPU-Sim PTX:    immediate post dominator      @  PC=0x200 (_1.ptx:144) ld.shared.f32 %f8, [__cuda___cuda_local_var_16314_59_non_const_partialsum20+0];
GPGPU-Sim PTX: ... end of reconvergence points for _Z9reductionPfS_j
GPGPU-Sim PTX: ... done pre-decoding instructions for '_Z9reductionPfS_j'.
GPGPU-Sim PTX: finished parsing EMBEDDED .ptx file _1.ptx
Adding _cuobjdump_1.ptx with cubin handle 1
GPGPU-Sim PTX: extracting embedded .ptx to temporary file "_ptx_TK9CE4"
Running: cat _ptx_TK9CE4 | sed 's/.version 1.5/.version 1.4/' | sed 's/, texmode_independent//' | sed 's/\(\.extern \.const\[1\] .b8 \w\+\)\[\]/\1\[1\]/' | sed 's/const\[.\]/const\[0\]/g' > _ptx2_Xkn2X6
GPGPU-Sim PTX: generating ptxinfo using "$CUDA_INSTALL_PATH/bin/ptxas --gpu-name=sm_20 -v _ptx2_Xkn2X6 --output-file  /dev/null 2> _ptx_TK9CE4info"
GPGPU-Sim PTX: Kernel '_Z9reductionPfS_j' : regs=10, lmem=0, smem=4096, cmem=52
GPGPU-Sim PTX: removing ptxinfo using "rm -f _ptx_TK9CE4 _ptx2_Xkn2X6 _ptx_TK9CE4info"
GPGPU-Sim PTX: loading globals with explicit initializers... 
GPGPU-Sim PTX: finished loading globals (0 bytes total).
GPGPU-Sim PTX: loading constants with explicit initializers...  done.
GPGPU-Sim PTX: __cudaRegisterFatBinary, fat_cubin_handle = 2, filename=support.cu

Setting up the problem...0.056366 s
    Input size = 1000000
Allocating device variables...0.000006 s
Copying data from host to device...0.208957 s
Launching kernel...
GPGPU-Sim PTX: cudaLaunch for 0x0x400f10 (mode=performance simulation) on stream 0
GPGPU-Sim PTX: pushing kernel '_Z9reductionPfS_j' to stream 0, gridDim= (977,1,1) blockDim = (512,1,1) 
kernel '_Z9reductionPfS_j' transfer to GPU hardware scheduler
GPGPU-Sim uArch: Shader 1 bind to kernel 1 '_Z9reductionPfS_j'
GPGPU-Sim uArch: CTA/core = 3, limited by: threads
GPGPU-Sim uArch: core:  1, cta: 0 initialized @(1,0)
GPGPU-Sim uArch: Shader 2 bind to kernel 1 '_Z9reductionPfS_j'
GPGPU-Sim uArch: core:  2, cta: 0 initialized @(1,0)
GPGPU-Sim uArch: Shader 3 bind to kernel 1 '_Z9reductionPfS_j'
GPGPU-Sim uArch: core:  3, cta: 0 initialized @(1,0)
GPGPU-Sim uArch: Shader 4 bind to kernel 1 '_Z9reductionPfS_j'
GPGPU-Sim uArch: core:  4, cta: 0 initialized @(1,0)
GPGPU-Sim uArch: Shader 5 bind to kernel 1 '_Z9reductionPfS_j'
GPGPU-Sim uArch: core:  5, cta: 0 initialized @(1,0)
GPGPU-Sim uArch: Shader 6 bind to kernel 1 '_Z9reductionPfS_j'
GPGPU-Sim uArch: core:  6, cta: 0 initialized @(1,0)
GPGPU-Sim uArch: Shader 7 bind to kernel 1 '_Z9reductionPfS_j'
GPGPU-Sim uArch: core:  7, cta: 0 initialized @(1,0)
GPGPU-Sim uArch: Shader 8 bind to kernel 1 '_Z9reductionPfS_j'
GPGPU-Sim uArch: core:  8, cta: 0 initialized @(1,0)
GPGPU-Sim uArch: Shader 9 bind to kernel 1 '_Z9reductionPfS_j'
GPGPU-Sim uArch: core:  9, cta: 0 initialized @(1,0)
GPGPU-Sim uArch: Shader 10 bind to kernel 1 '_Z9reductionPfS_j'
GPGPU-Sim uArch: core: 10, cta: 0 initialized @(1,0)
GPGPU-Sim uArch: Shader 11 bind to kernel 1 '_Z9reductionPfS_j'
GPGPU-Sim uArch: core: 11, cta: 0 initialized @(1,0)
GPGPU-Sim uArch: Shader 12 bind to kernel 1 '_Z9reductionPfS_j'
GPGPU-Sim uArch: core: 12, cta: 0 initialized @(1,0)
GPGPU-Sim uArch: Shader 13 bind to kernel 1 '_Z9reductionPfS_j'
GPGPU-Sim uArch: core: 13, cta: 0 initialized @(1,0)
GPGPU-Sim uArch: Shader 14 bind to kernel 1 '_Z9reductionPfS_j'
GPGPU-Sim uArch: core: 14, cta: 0 initialized @(1,0)
GPGPU-Sim uArch: Shader 0 bind to kernel 1 '_Z9reductionPfS_j'
GPGPU-Sim uArch: core:  0, cta: 0 initialized @(1,0)
GPGPU-Sim uArch: core:  1, cta: 1 initialized @(2,0)
GPGPU-Sim uArch: core:  2, cta: 1 initialized @(2,0)
GPGPU-Sim uArch: core:  3, cta: 1 initialized @(2,0)
GPGPU-Sim uArch: core:  4, cta: 1 initialized @(2,0)
GPGPU-Sim uArch: core:  5, cta: 1 initialized @(2,0)
GPGPU-Sim uArch: core:  6, cta: 1 initialized @(2,0)
GPGPU-Sim uArch: core:  7, cta: 1 initialized @(2,0)
GPGPU-Sim uArch: core:  8, cta: 1 initialized @(2,0)
GPGPU-Sim uArch: core:  9, cta: 1 initialized @(2,0)
GPGPU-Sim uArch: core: 10, cta: 1 initialized @(2,0)
GPGPU-Sim uArch: core: 11, cta: 1 initialized @(2,0)
GPGPU-Sim uArch: core: 12, cta: 1 initialized @(2,0)
GPGPU-Sim uArch: core: 13, cta: 1 initialized @(2,0)
GPGPU-Sim uArch: core: 14, cta: 1 initialized @(2,0)
GPGPU-Sim uArch: core:  0, cta: 1 initialized @(2,0)
GPGPU-Sim uArch: core:  1, cta: 2 initialized @(3,0)
GPGPU-Sim uArch: core:  2, cta: 2 initialized @(3,0)
GPGPU-Sim uArch: core:  3, cta: 2 initialized @(3,0)
GPGPU-Sim uArch: core:  4, cta: 2 initialized @(3,0)
GPGPU-Sim uArch: core:  5, cta: 2 initialized @(3,0)
GPGPU-Sim uArch: core:  6, cta: 2 initialized @(3,0)
GPGPU-Sim uArch: core:  7, cta: 2 initialized @(3,0)
GPGPU-Sim uArch: core:  8, cta: 2 initialized @(3,0)
GPGPU-Sim uArch: core:  9, cta: 2 initialized @(3,0)
GPGPU-Sim uArch: core: 10, cta: 2 initialized @(3,0)
GPGPU-Sim uArch: core: 11, cta: 2 initialized @(3,0)
GPGPU-Sim uArch: core: 12, cta: 2 initialized @(3,0)
GPGPU-Sim uArch: core: 13, cta: 2 initialized @(3,0)
GPGPU-Sim uArch: core: 14, cta: 2 initialized @(3,0)
GPGPU-Sim uArch: core:  0, cta: 2 initialized @(3,0)
GPGPU-Sim PTX: 100000 instructions simulated : ctaid=(15,0,0) tid=(191,0,0)
GPGPU-Sim uArch: cycles simulated: 500  inst.: 134016 (ipc=268.0) sim_rate=134016 (inst/sec) elapsed = 0:0:00:01 / Tue Jan 29 23:17:45 2019
GPGPU-Sim PTX: 200000 instructions simulated : ctaid=(24,0,0) tid=(383,0,0)
GPGPU-Sim PTX: 300000 instructions simulated : ctaid=(10,0,0) tid=(383,0,0)
GPGPU-Sim uArch: cycles simulated: 1000  inst.: 345600 (ipc=345.6) sim_rate=172800 (inst/sec) elapsed = 0:0:00:02 / Tue Jan 29 23:17:46 2019
GPGPU-Sim PTX: 400000 instructions simulated : ctaid=(42,0,0) tid=(287,0,0)
GPGPU-Sim uArch: cycles simulated: 1500  inst.: 397536 (ipc=265.0) sim_rate=132512 (inst/sec) elapsed = 0:0:00:03 / Tue Jan 29 23:17:47 2019
GPGPU-Sim PTX: 500000 instructions simulated : ctaid=(29,0,0) tid=(223,0,0)
GPGPU-Sim PTX: 600000 instructions simulated : ctaid=(11,0,0) tid=(383,0,0)
GPGPU-Sim uArch: cycles simulated: 2000  inst.: 623328 (ipc=311.7) sim_rate=155832 (inst/sec) elapsed = 0:0:00:04 / Tue Jan 29 23:17:48 2019
GPGPU-Sim PTX: 700000 instructions simulated : ctaid=(40,0,0) tid=(31,0,0)
GPGPU-Sim PTX: 800000 instructions simulated : ctaid=(1,0,0) tid=(319,0,0)
GPGPU-Sim uArch: cycles simulated: 2500  inst.: 747744 (ipc=299.1) sim_rate=149548 (inst/sec) elapsed = 0:0:00:05 / Tue Jan 29 23:17:49 2019
GPGPU-Sim PTX: 900000 instructions simulated : ctaid=(36,0,0) tid=(319,0,0)
GPGPU-Sim PTX: 1000000 instructions simulated : ctaid=(4,0,0) tid=(511,0,0)
GPGPU-Sim uArch: cycles simulated: 3000  inst.: 982560 (ipc=327.5) sim_rate=163760 (inst/sec) elapsed = 0:0:00:06 / Tue Jan 29 23:17:50 2019
GPGPU-Sim PTX: 1100000 instructions simulated : ctaid=(29,0,0) tid=(127,0,0)
GPGPU-Sim PTX: 1200000 instructions simulated : ctaid=(26,0,0) tid=(111,0,0)
GPGPU-Sim PTX: 1300000 instructions simulated : ctaid=(12,0,0) tid=(334,0,0)
GPGPU-Sim PTX: 1400000 instructions simulated : ctaid=(42,0,0) tid=(55,0,0)
GPGPU-Sim uArch: cycles simulated: 3500  inst.: 1349640 (ipc=385.6) sim_rate=192805 (inst/sec) elapsed = 0:0:00:07 / Tue Jan 29 23:17:51 2019
GPGPU-Sim PTX: 1500000 instructions simulated : ctaid=(1,0,0) tid=(95,0,0)
GPGPU-Sim PTX: 1600000 instructions simulated : ctaid=(18,0,0) tid=(230,0,0)
GPGPU-Sim PTX: 1700000 instructions simulated : ctaid=(1,0,0) tid=(368,0,0)
GPGPU-Sim uArch: cycles simulated: 4000  inst.: 1622108 (ipc=405.5) sim_rate=202763 (inst/sec) elapsed = 0:0:00:08 / Tue Jan 29 23:17:52 2019
GPGPU-Sim PTX: 1800000 instructions simulated : ctaid=(12,0,0) tid=(21,0,0)
GPGPU-Sim PTX: 1900000 instructions simulated : ctaid=(4,0,0) tid=(446,0,0)
GPGPU-Sim uArch: cycles simulated: 4500  inst.: 1864889 (ipc=414.4) sim_rate=207209 (inst/sec) elapsed = 0:0:00:09 / Tue Jan 29 23:17:53 2019
GPGPU-Sim PTX: 2000000 instructions simulated : ctaid=(13,0,0) tid=(176,0,0)
GPGPU-Sim PTX: 2100000 instructions simulated : ctaid=(21,0,0) tid=(239,0,0)
GPGPU-Sim PTX: 2200000 instructions simulated : ctaid=(40,0,0) tid=(302,0,0)
GPGPU-Sim PTX: 2300000 instructions simulated : ctaid=(38,0,0) tid=(468,0,0)
GPGPU-Sim PTX: 2400000 instructions simulated : ctaid=(34,0,0) tid=(12,0,0)
GPGPU-Sim uArch: cycles simulated: 5500  inst.: 2370693 (ipc=431.0) sim_rate=237069 (inst/sec) elapsed = 0:0:00:10 / Tue Jan 29 23:17:54 2019
GPGPU-Sim PTX: 2500000 instructions simulated : ctaid=(4,0,0) tid=(175,0,0)
GPGPU-Sim PTX: 2600000 instructions simulated : ctaid=(40,0,0) tid=(143,0,0)
GPGPU-Sim PTX: 2700000 instructions simulated : ctaid=(11,0,0) tid=(176,0,0)
GPGPU-Sim uArch: cycles simulated: 6000  inst.: 2643262 (ipc=440.5) sim_rate=240296 (inst/sec) elapsed = 0:0:00:11 / Tue Jan 29 23:17:55 2019
GPGPU-Sim PTX: 2800000 instructions simulated : ctaid=(9,0,0) tid=(91,0,0)
GPGPU-Sim uArch: Shader 1 finished CTA #0 (6075,0), 2 CTAs running
GPGPU-Sim uArch: core:  1, cta: 0 initialized @(6076,0)
GPGPU-Sim uArch: Shader 5 finished CTA #0 (6235,0), 2 CTAs running
GPGPU-Sim uArch: core:  5, cta: 0 initialized @(6236,0)
GPGPU-Sim PTX: 2900000 instructions simulated : ctaid=(46,0,0) tid=(101,0,0)
GPGPU-Sim uArch: Shader 3 finished CTA #0 (6336,0), 2 CTAs running
GPGPU-Sim uArch: core:  3, cta: 0 initialized @(6337,0)
GPGPU-Sim uArch: Shader 2 finished CTA #0 (6406,0), 2 CTAs running
GPGPU-Sim uArch: core:  2, cta: 0 initialized @(6407,0)
GPGPU-Sim PTX: 3000000 instructions simulated : ctaid=(19,0,0) tid=(196,0,0)
GPGPU-Sim uArch: cycles simulated: 6500  inst.: 2899297 (ipc=446.0) sim_rate=241608 (inst/sec) elapsed = 0:0:00:12 / Tue Jan 29 23:17:56 2019
GPGPU-Sim uArch: Shader 8 finished CTA #0 (6588,0), 2 CTAs running
GPGPU-Sim uArch: core:  8, cta: 0 initialized @(6589,0)
GPGPU-Sim uArch: Shader 0 finished CTA #0 (6609,0), 2 CTAs running
GPGPU-Sim uArch: core:  0, cta: 0 initialized @(6610,0)
GPGPU-Sim uArch: Shader 11 finished CTA #0 (6617,0), 2 CTAs running
GPGPU-Sim uArch: core: 11, cta: 0 initialized @(6618,0)
GPGPU-Sim PTX: 3100000 instructions simulated : ctaid=(31,0,0) tid=(416,0,0)
GPGPU-Sim uArch: Shader 13 finished CTA #0 (6679,0), 2 CTAs running
GPGPU-Sim uArch: core: 13, cta: 0 initialized @(6680,0)
GPGPU-Sim uArch: Shader 4 finished CTA #0 (6683,0), 2 CTAs running
GPGPU-Sim uArch: core:  4, cta: 0 initialized @(6684,0)
GPGPU-Sim uArch: Shader 9 finished CTA #0 (6693,0), 2 CTAs running
GPGPU-Sim uArch: core:  9, cta: 0 initialized @(6694,0)
GPGPU-Sim uArch: Shader 12 finished CTA #0 (6708,0), 2 CTAs running
GPGPU-Sim uArch: core: 12, cta: 0 initialized @(6709,0)
GPGPU-Sim uArch: Shader 10 finished CTA #0 (6727,0), 2 CTAs running
GPGPU-Sim uArch: core: 10, cta: 0 initialized @(6728,0)
GPGPU-Sim uArch: Shader 7 finished CTA #0 (6728,0), 2 CTAs running
GPGPU-Sim uArch: core:  7, cta: 0 initialized @(6729,0)
GPGPU-Sim uArch: Shader 6 finished CTA #0 (6737,0), 2 CTAs running
GPGPU-Sim uArch: core:  6, cta: 0 initialized @(6738,0)
GPGPU-Sim uArch: Shader 14 finished CTA #0 (6739,0), 2 CTAs running
GPGPU-Sim uArch: core: 14, cta: 0 initialized @(6740,0)
GPGPU-Sim PTX: 3200000 instructions simulated : ctaid=(59,0,0) tid=(121,0,0)
GPGPU-Sim PTX: 3300000 instructions simulated : ctaid=(52,0,0) tid=(464,0,0)
GPGPU-Sim uArch: cycles simulated: 7000  inst.: 3190447 (ipc=455.8) sim_rate=245419 (inst/sec) elapsed = 0:0:00:13 / Tue Jan 29 23:17:57 2019
GPGPU-Sim uArch: Shader 11 finished CTA #1 (7100,0), 2 CTAs running
GPGPU-Sim uArch: core: 11, cta: 1 initialized @(7101,0)
GPGPU-Sim PTX: 3400000 instructions simulated : ctaid=(26,0,0) tid=(62,0,0)
GPGPU-Sim uArch: Shader 2 finished CTA #1 (7176,0), 2 CTAs running
GPGPU-Sim uArch: core:  2, cta: 1 initialized @(7177,0)
GPGPU-Sim PTX: 3500000 instructions simulated : ctaid=(41,0,0) tid=(266,0,0)
GPGPU-Sim uArch: Shader 5 finished CTA #1 (7371,0), 2 CTAs running
GPGPU-Sim uArch: core:  5, cta: 1 initialized @(7372,0)
GPGPU-Sim uArch: Shader 1 finished CTA #1 (7373,0), 2 CTAs running
GPGPU-Sim uArch: core:  1, cta: 1 initialized @(7374,0)
GPGPU-Sim uArch: cycles simulated: 7500  inst.: 3445748 (ipc=459.4) sim_rate=246124 (inst/sec) elapsed = 0:0:00:14 / Tue Jan 29 23:17:58 2019
GPGPU-Sim PTX: 3600000 instructions simulated : ctaid=(40,0,0) tid=(74,0,0)
GPGPU-Sim uArch: Shader 9 finished CTA #1 (7546,0), 2 CTAs running
GPGPU-Sim uArch: core:  9, cta: 1 initialized @(7547,0)
GPGPU-Sim uArch: Shader 8 finished CTA #1 (7595,0), 2 CTAs running
GPGPU-Sim uArch: core:  8, cta: 1 initialized @(7596,0)
GPGPU-Sim uArch: Shader 0 finished CTA #1 (7669,0), 2 CTAs running
GPGPU-Sim uArch: core:  0, cta: 1 initialized @(7670,0)
GPGPU-Sim PTX: 3700000 instructions simulated : ctaid=(36,0,0) tid=(192,0,0)
GPGPU-Sim uArch: Shader 3 finished CTA #1 (7702,0), 2 CTAs running
GPGPU-Sim uArch: core:  3, cta: 1 initialized @(7703,0)
GPGPU-Sim uArch: Shader 4 finished CTA #1 (7784,0), 2 CTAs running
GPGPU-Sim uArch: core:  4, cta: 1 initialized @(7785,0)
GPGPU-Sim uArch: Shader 6 finished CTA #1 (7825,0), 2 CTAs running
GPGPU-Sim uArch: core:  6, cta: 1 initialized @(7826,0)
GPGPU-Sim uArch: Shader 13 finished CTA #1 (7840,0), 2 CTAs running
GPGPU-Sim uArch: core: 13, cta: 1 initialized @(7841,0)
GPGPU-Sim uArch: Shader 12 finished CTA #1 (7842,0), 2 CTAs running
GPGPU-Sim uArch: core: 12, cta: 1 initialized @(7843,0)
GPGPU-Sim PTX: 3800000 instructions simulated : ctaid=(30,0,0) tid=(249,0,0)
GPGPU-Sim uArch: Shader 7 finished CTA #1 (7861,0), 2 CTAs running
GPGPU-Sim uArch: core:  7, cta: 1 initialized @(7862,0)
GPGPU-Sim uArch: Shader 10 finished CTA #1 (7863,0), 2 CTAs running
GPGPU-Sim uArch: core: 10, cta: 1 initialized @(7864,0)
GPGPU-Sim uArch: Shader 14 finished CTA #1 (7865,0), 2 CTAs running
GPGPU-Sim uArch: core: 14, cta: 1 initialized @(7866,0)
GPGPU-Sim PTX: 3900000 instructions simulated : ctaid=(65,0,0) tid=(320,0,0)
GPGPU-Sim uArch: cycles simulated: 8000  inst.: 3744016 (ipc=468.0) sim_rate=249601 (inst/sec) elapsed = 0:0:00:15 / Tue Jan 29 23:17:59 2019
GPGPU-Sim PTX: 4000000 instructions simulated : ctaid=(68,0,0) tid=(394,0,0)
GPGPU-Sim PTX: 4100000 instructions simulated : ctaid=(31,0,0) tid=(402,0,0)
GPGPU-Sim PTX: 4200000 instructions simulated : ctaid=(40,0,0) tid=(318,0,0)
GPGPU-Sim uArch: cycles simulated: 8500  inst.: 4084960 (ipc=480.6) sim_rate=255310 (inst/sec) elapsed = 0:0:00:16 / Tue Jan 29 23:18:00 2019
GPGPU-Sim PTX: 4300000 instructions simulated : ctaid=(39,0,0) tid=(137,0,0)
GPGPU-Sim uArch: Shader 8 finished CTA #2 (8695,0), 2 CTAs running
GPGPU-Sim uArch: core:  8, cta: 2 initialized @(8696,0)
GPGPU-Sim uArch: Shader 0 finished CTA #2 (8722,0), 2 CTAs running
GPGPU-Sim uArch: core:  0, cta: 2 initialized @(8723,0)
GPGPU-Sim PTX: 4400000 instructions simulated : ctaid=(47,0,0) tid=(76,0,0)
GPGPU-Sim PTX: 4500000 instructions simulated : ctaid=(45,0,0) tid=(119,0,0)
GPGPU-Sim uArch: Shader 3 finished CTA #2 (8956,0), 2 CTAs running
GPGPU-Sim uArch: core:  3, cta: 2 initialized @(8957,0)
GPGPU-Sim uArch: cycles simulated: 9000  inst.: 4360725 (ipc=484.5) sim_rate=242262 (inst/sec) elapsed = 0:0:00:18 / Tue Jan 29 23:18:02 2019
GPGPU-Sim uArch: Shader 4 finished CTA #2 (9045,0), 2 CTAs running
GPGPU-Sim uArch: core:  4, cta: 2 initialized @(9046,0)
GPGPU-Sim PTX: 4600000 instructions simulated : ctaid=(60,0,0) tid=(467,0,0)
GPGPU-Sim uArch: Shader 6 finished CTA #2 (9150,0), 2 CTAs running
GPGPU-Sim uArch: core:  6, cta: 2 initialized @(9151,0)
GPGPU-Sim uArch: Shader 7 finished CTA #2 (9230,0), 2 CTAs running
GPGPU-Sim uArch: core:  7, cta: 2 initialized @(9231,0)
GPGPU-Sim PTX: 4700000 instructions simulated : ctaid=(57,0,0) tid=(359,0,0)
GPGPU-Sim uArch: Shader 2 finished CTA #2 (9332,0), 2 CTAs running
GPGPU-Sim uArch: core:  2, cta: 2 initialized @(9333,0)
GPGPU-Sim uArch: Shader 9 finished CTA #2 (9339,0), 2 CTAs running
GPGPU-Sim uArch: core:  9, cta: 2 initialized @(9340,0)
GPGPU-Sim uArch: Shader 12 finished CTA #2 (9341,0), 2 CTAs running
GPGPU-Sim uArch: core: 12, cta: 2 initialized @(9342,0)
GPGPU-Sim uArch: Shader 14 finished CTA #2 (9345,0), 2 CTAs running
GPGPU-Sim uArch: core: 14, cta: 2 initialized @(9346,0)
GPGPU-Sim uArch: Shader 1 finished CTA #2 (9348,0), 2 CTAs running
GPGPU-Sim uArch: core:  1, cta: 2 initialized @(9349,0)
GPGPU-Sim uArch: Shader 5 finished CTA #2 (9349,0), 2 CTAs running
GPGPU-Sim uArch: core:  5, cta: 2 initialized @(9350,0)
GPGPU-Sim uArch: Shader 11 finished CTA #2 (9364,0), 2 CTAs running
GPGPU-Sim uArch: core: 11, cta: 2 initialized @(9365,0)
GPGPU-Sim uArch: Shader 10 finished CTA #2 (9367,0), 2 CTAs running
GPGPU-Sim uArch: core: 10, cta: 2 initialized @(9368,0)
GPGPU-Sim uArch: Shader 13 finished CTA #2 (9368,0), 2 CTAs running
GPGPU-Sim uArch: core: 13, cta: 2 initialized @(9369,0)
GPGPU-Sim PTX: 4800000 instructions simulated : ctaid=(53,0,0) tid=(136,0,0)
GPGPU-Sim uArch: cycles simulated: 9500  inst.: 4632362 (ipc=487.6) sim_rate=243808 (inst/sec) elapsed = 0:0:00:19 / Tue Jan 29 23:18:03 2019
GPGPU-Sim PTX: 4900000 instructions simulated : ctaid=(55,0,0) tid=(216,0,0)
GPGPU-Sim PTX: 5000000 instructions simulated : ctaid=(78,0,0) tid=(199,0,0)
GPGPU-Sim PTX: 5100000 instructions simulated : ctaid=(59,0,0) tid=(350,0,0)
GPGPU-Sim uArch: cycles simulated: 10000  inst.: 4941022 (ipc=494.1) sim_rate=247051 (inst/sec) elapsed = 0:0:00:20 / Tue Jan 29 23:18:04 2019
GPGPU-Sim PTX: 5200000 instructions simulated : ctaid=(46,0,0) tid=(307,0,0)
GPGPU-Sim PTX: 5300000 instructions simulated : ctaid=(58,0,0) tid=(130,0,0)
GPGPU-Sim PTX: 5400000 instructions simulated : ctaid=(73,0,0) tid=(264,0,0)
GPGPU-Sim uArch: cycles simulated: 10500  inst.: 5228300 (ipc=497.9) sim_rate=248966 (inst/sec) elapsed = 0:0:00:21 / Tue Jan 29 23:18:05 2019
GPGPU-Sim PTX: 5500000 instructions simulated : ctaid=(82,0,0) tid=(210,0,0)
GPGPU-Sim PTX: 5600000 instructions simulated : ctaid=(46,0,0) tid=(413,0,0)
GPGPU-Sim PTX: 5700000 instructions simulated : ctaid=(75,0,0) tid=(203,0,0)
GPGPU-Sim uArch: cycles simulated: 11000  inst.: 5514540 (ipc=501.3) sim_rate=250660 (inst/sec) elapsed = 0:0:00:22 / Tue Jan 29 23:18:06 2019
GPGPU-Sim PTX: 5800000 instructions simulated : ctaid=(48,0,0) tid=(207,0,0)
GPGPU-Sim uArch: Shader 1 finished CTA #0 (11134,0), 2 CTAs running
GPGPU-Sim uArch: core:  1, cta: 0 initialized @(11135,0)
GPGPU-Sim uArch: Shader 5 finished CTA #0 (11193,0), 2 CTAs running
GPGPU-Sim uArch: core:  5, cta: 0 initialized @(11194,0)
GPGPU-Sim PTX: 5900000 instructions simulated : ctaid=(57,0,0) tid=(277,0,0)
GPGPU-Sim uArch: Shader 2 finished CTA #0 (11318,0), 2 CTAs running
GPGPU-Sim uArch: core:  2, cta: 0 initialized @(11319,0)
GPGPU-Sim uArch: Shader 3 finished CTA #0 (11332,0), 2 CTAs running
GPGPU-Sim uArch: core:  3, cta: 0 initialized @(11333,0)
GPGPU-Sim uArch: Shader 11 finished CTA #0 (11407,0), 2 CTAs running
GPGPU-Sim uArch: core: 11, cta: 0 initialized @(11408,0)
GPGPU-Sim PTX: 6000000 instructions simulated : ctaid=(91,0,0) tid=(240,0,0)
GPGPU-Sim uArch: cycles simulated: 11500  inst.: 5799454 (ipc=504.3) sim_rate=252150 (inst/sec) elapsed = 0:0:00:23 / Tue Jan 29 23:18:07 2019
GPGPU-Sim uArch: Shader 9 finished CTA #0 (11552,0), 2 CTAs running
GPGPU-Sim uArch: core:  9, cta: 0 initialized @(11553,0)
GPGPU-Sim PTX: 6100000 instructions simulated : ctaid=(63,0,0) tid=(342,0,0)
GPGPU-Sim uArch: Shader 0 finished CTA #0 (11601,0), 2 CTAs running
GPGPU-Sim uArch: core:  0, cta: 0 initialized @(11602,0)
GPGPU-Sim uArch: Shader 4 finished CTA #0 (11697,0), 2 CTAs running
GPGPU-Sim uArch: core:  4, cta: 0 initialized @(11698,0)
GPGPU-Sim uArch: Shader 8 finished CTA #0 (11714,0), 2 CTAs running
GPGPU-Sim uArch: core:  8, cta: 0 initialized @(11715,0)
GPGPU-Sim PTX: 6200000 instructions simulated : ctaid=(69,0,0) tid=(259,0,0)
GPGPU-Sim PTX: 6300000 instructions simulated : ctaid=(72,0,0) tid=(427,0,0)
GPGPU-Sim uArch: Shader 14 finished CTA #0 (11892,0), 2 CTAs running
GPGPU-Sim uArch: core: 14, cta: 0 initialized @(11893,0)
GPGPU-Sim uArch: Shader 6 finished CTA #0 (11898,0), 2 CTAs running
GPGPU-Sim uArch: Shader 12 finished CTA #0 (11898,0), 2 CTAs running
GPGPU-Sim uArch: core:  6, cta: 0 initialized @(11899,0)
GPGPU-Sim uArch: core: 12, cta: 0 initialized @(11899,0)
GPGPU-Sim uArch: Shader 10 finished CTA #0 (11920,0), 2 CTAs running
GPGPU-Sim uArch: core: 10, cta: 0 initialized @(11921,0)
GPGPU-Sim uArch: cycles simulated: 12000  inst.: 6107499 (ipc=509.0) sim_rate=254479 (inst/sec) elapsed = 0:0:00:24 / Tue Jan 29 23:18:08 2019
GPGPU-Sim uArch: Shader 13 finished CTA #0 (12008,0), 2 CTAs running
GPGPU-Sim uArch: core: 13, cta: 0 initialized @(12009,0)
GPGPU-Sim uArch: Shader 7 finished CTA #0 (12037,0), 2 CTAs running
GPGPU-Sim uArch: core:  7, cta: 0 initialized @(12038,0)
GPGPU-Sim PTX: 6400000 instructions simulated : ctaid=(76,0,0) tid=(252,0,0)
GPGPU-Sim PTX: 6500000 instructions simulated : ctaid=(75,0,0) tid=(508,0,0)
GPGPU-Sim PTX: 6600000 instructions simulated : ctaid=(87,0,0) tid=(128,0,0)
GPGPU-Sim uArch: cycles simulated: 12500  inst.: 6416418 (ipc=513.3) sim_rate=256656 (inst/sec) elapsed = 0:0:00:25 / Tue Jan 29 23:18:09 2019
GPGPU-Sim PTX: 6700000 instructions simulated : ctaid=(68,0,0) tid=(9,0,0)
GPGPU-Sim PTX: 6800000 instructions simulated : ctaid=(79,0,0) tid=(380,0,0)
GPGPU-Sim PTX: 6900000 instructions simulated : ctaid=(64,0,0) tid=(152,0,0)
GPGPU-Sim PTX: 7000000 instructions simulated : ctaid=(64,0,0) tid=(217,0,0)
GPGPU-Sim uArch: cycles simulated: 13000  inst.: 6723821 (ipc=517.2) sim_rate=258608 (inst/sec) elapsed = 0:0:00:26 / Tue Jan 29 23:18:10 2019
GPGPU-Sim uArch: Shader 11 finished CTA #1 (13086,0), 2 CTAs running
GPGPU-Sim uArch: core: 11, cta: 1 initialized @(13087,0)
GPGPU-Sim uArch: Shader 5 finished CTA #1 (13154,0), 2 CTAs running
GPGPU-Sim uArch: core:  5, cta: 1 initialized @(13155,0)
GPGPU-Sim PTX: 7100000 instructions simulated : ctaid=(103,0,0) tid=(494,0,0)
GPGPU-Sim uArch: Shader 2 finished CTA #1 (13273,0), 2 CTAs running
GPGPU-Sim uArch: core:  2, cta: 1 initialized @(13274,0)
GPGPU-Sim uArch: Shader 1 finished CTA #1 (13306,0), 2 CTAs running
GPGPU-Sim uArch: core:  1, cta: 1 initialized @(13307,0)
GPGPU-Sim uArch: Shader 8 finished CTA #1 (13313,0), 2 CTAs running
GPGPU-Sim uArch: core:  8, cta: 1 initialized @(13314,0)
GPGPU-Sim PTX: 7200000 instructions simulated : ctaid=(83,0,0) tid=(185,0,0)
GPGPU-Sim uArch: Shader 3 finished CTA #1 (13341,0), 2 CTAs running
GPGPU-Sim uArch: core:  3, cta: 1 initialized @(13342,0)
GPGPU-Sim uArch: Shader 0 finished CTA #1 (13374,0), 2 CTAs running
GPGPU-Sim uArch: core:  0, cta: 1 initialized @(13375,0)
GPGPU-Sim uArch: Shader 4 finished CTA #1 (13488,0), 2 CTAs running
GPGPU-Sim uArch: core:  4, cta: 1 initialized @(13489,0)
GPGPU-Sim uArch: cycles simulated: 13500  inst.: 7002029 (ipc=518.7) sim_rate=250072 (inst/sec) elapsed = 0:0:00:28 / Tue Jan 29 23:18:12 2019
GPGPU-Sim PTX: 7300000 instructions simulated : ctaid=(76,0,0) tid=(128,0,0)
GPGPU-Sim uArch: Shader 6 finished CTA #1 (13537,0), 2 CTAs running
GPGPU-Sim uArch: core:  6, cta: 1 initialized @(13538,0)
GPGPU-Sim uArch: Shader 14 finished CTA #1 (13650,0), 2 CTAs running
GPGPU-Sim uArch: core: 14, cta: 1 initialized @(13651,0)
GPGPU-Sim uArch: Shader 9 finished CTA #1 (13651,0), 2 CTAs running
GPGPU-Sim uArch: core:  9, cta: 1 initialized @(13652,0)
GPGPU-Sim PTX: 7400000 instructions simulated : ctaid=(112,0,0) tid=(52,0,0)
GPGPU-Sim uArch: Shader 12 finished CTA #1 (13742,0), 2 CTAs running
GPGPU-Sim uArch: core: 12, cta: 1 initialized @(13743,0)
GPGPU-Sim uArch: Shader 7 finished CTA #1 (13767,0), 2 CTAs running
GPGPU-Sim uArch: core:  7, cta: 1 initialized @(13768,0)
GPGPU-Sim uArch: Shader 13 finished CTA #1 (13799,0), 2 CTAs running
GPGPU-Sim uArch: core: 13, cta: 1 initialized @(13800,0)
GPGPU-Sim uArch: Shader 10 finished CTA #1 (13811,0), 2 CTAs running
GPGPU-Sim uArch: core: 10, cta: 1 initialized @(13812,0)
GPGPU-Sim PTX: 7500000 instructions simulated : ctaid=(98,0,0) tid=(81,0,0)
GPGPU-Sim PTX: 7600000 instructions simulated : ctaid=(83,0,0) tid=(221,0,0)
GPGPU-Sim uArch: cycles simulated: 14000  inst.: 7303995 (ipc=521.7) sim_rate=251861 (inst/sec) elapsed = 0:0:00:29 / Tue Jan 29 23:18:13 2019
GPGPU-Sim PTX: 7700000 instructions simulated : ctaid=(82,0,0) tid=(28,0,0)
GPGPU-Sim PTX: 7800000 instructions simulated : ctaid=(116,0,0) tid=(346,0,0)
GPGPU-Sim PTX: 7900000 instructions simulated : ctaid=(111,0,0) tid=(498,0,0)
GPGPU-Sim uArch: cycles simulated: 14500  inst.: 7638143 (ipc=526.8) sim_rate=246391 (inst/sec) elapsed = 0:0:00:31 / Tue Jan 29 23:18:15 2019
GPGPU-Sim PTX: 8000000 instructions simulated : ctaid=(100,0,0) tid=(74,0,0)
GPGPU-Sim PTX: 8100000 instructions simulated : ctaid=(104,0,0) tid=(196,0,0)
GPGPU-Sim PTX: 8200000 instructions simulated : ctaid=(92,0,0) tid=(423,0,0)
GPGPU-Sim uArch: Shader 8 finished CTA #2 (14871,0), 2 CTAs running
GPGPU-Sim uArch: core:  8, cta: 2 initialized @(14872,0)
GPGPU-Sim uArch: Shader 3 finished CTA #2 (14932,0), 2 CTAs running
GPGPU-Sim uArch: core:  3, cta: 2 initialized @(14933,0)
GPGPU-Sim uArch: Shader 11 finished CTA #2 (14977,0), 2 CTAs running
GPGPU-Sim uArch: core: 11, cta: 2 initialized @(14978,0)
GPGPU-Sim uArch: cycles simulated: 15000  inst.: 7945991 (ipc=529.7) sim_rate=248312 (inst/sec) elapsed = 0:0:00:32 / Tue Jan 29 23:18:16 2019
GPGPU-Sim PTX: 8300000 instructions simulated : ctaid=(94,0,0) tid=(102,0,0)
GPGPU-Sim uArch: Shader 0 finished CTA #2 (15059,0), 2 CTAs running
GPGPU-Sim uArch: core:  0, cta: 2 initialized @(15060,0)
GPGPU-Sim uArch: Shader 5 finished CTA #2 (15148,0), 2 CTAs running
GPGPU-Sim uArch: core:  5, cta: 2 initialized @(15149,0)
GPGPU-Sim PTX: 8400000 instructions simulated : ctaid=(89,0,0) tid=(61,0,0)
GPGPU-Sim uArch: Shader 4 finished CTA #2 (15303,0), 2 CTAs running
GPGPU-Sim uArch: core:  4, cta: 2 initialized @(15304,0)
GPGPU-Sim uArch: Shader 1 finished CTA #2 (15335,0), 2 CTAs running
GPGPU-Sim uArch: core:  1, cta: 2 initialized @(15336,0)
GPGPU-Sim uArch: Shader 9 finished CTA #2 (15354,0), 2 CTAs running
GPGPU-Sim uArch: core:  9, cta: 2 initialized @(15355,0)
GPGPU-Sim PTX: 8500000 instructions simulated : ctaid=(125,0,0) tid=(291,0,0)
GPGPU-Sim uArch: Shader 2 finished CTA #2 (15461,0), 2 CTAs running
GPGPU-Sim uArch: core:  2, cta: 2 initialized @(15462,0)
GPGPU-Sim uArch: Shader 6 finished CTA #2 (15477,0), 2 CTAs running
GPGPU-Sim uArch: core:  6, cta: 2 initialized @(15478,0)
GPGPU-Sim uArch: cycles simulated: 15500  inst.: 8211470 (ipc=529.8) sim_rate=248832 (inst/sec) elapsed = 0:0:00:33 / Tue Jan 29 23:18:17 2019
GPGPU-Sim uArch: Shader 7 finished CTA #2 (15524,0), 2 CTAs running
GPGPU-Sim uArch: core:  7, cta: 2 initialized @(15525,0)
GPGPU-Sim uArch: Shader 14 finished CTA #2 (15526,0), 2 CTAs running
GPGPU-Sim uArch: core: 14, cta: 2 initialized @(15527,0)
GPGPU-Sim uArch: Shader 12 finished CTA #2 (15527,0), 2 CTAs running
GPGPU-Sim uArch: core: 12, cta: 2 initialized @(15528,0)
GPGPU-Sim PTX: 8600000 instructions simulated : ctaid=(104,0,0) tid=(340,0,0)
GPGPU-Sim uArch: Shader 13 finished CTA #2 (15613,0), 2 CTAs running
GPGPU-Sim uArch: core: 13, cta: 2 initialized @(15614,0)
GPGPU-Sim uArch: Shader 10 finished CTA #2 (15625,0), 2 CTAs running
GPGPU-Sim uArch: core: 10, cta: 2 initialized @(15626,0)
GPGPU-Sim PTX: 8700000 instructions simulated : ctaid=(110,0,0) tid=(496,0,0)
GPGPU-Sim PTX: 8800000 instructions simulated : ctaid=(101,0,0) tid=(504,0,0)
GPGPU-Sim uArch: cycles simulated: 16000  inst.: 8518885 (ipc=532.4) sim_rate=250555 (inst/sec) elapsed = 0:0:00:34 / Tue Jan 29 23:18:18 2019
GPGPU-Sim PTX: 8900000 instructions simulated : ctaid=(127,0,0) tid=(40,0,0)
GPGPU-Sim PTX: 9000000 instructions simulated : ctaid=(96,0,0) tid=(290,0,0)
GPGPU-Sim PTX: 9100000 instructions simulated : ctaid=(91,0,0) tid=(300,0,0)
GPGPU-Sim PTX: 9200000 instructions simulated : ctaid=(107,0,0) tid=(160,0,0)
GPGPU-Sim uArch: cycles simulated: 16500  inst.: 8831406 (ipc=535.2) sim_rate=252325 (inst/sec) elapsed = 0:0:00:35 / Tue Jan 29 23:18:19 2019
GPGPU-Sim PTX: 9300000 instructions simulated : ctaid=(99,0,0) tid=(103,0,0)
GPGPU-Sim PTX: 9400000 instructions simulated : ctaid=(117,0,0) tid=(252,0,0)
GPGPU-Sim PTX: 9500000 instructions simulated : ctaid=(100,0,0) tid=(407,0,0)
GPGPU-Sim uArch: cycles simulated: 17000  inst.: 9132149 (ipc=537.2) sim_rate=253670 (inst/sec) elapsed = 0:0:00:36 / Tue Jan 29 23:18:20 2019
GPGPU-Sim uArch: Shader 3 finished CTA #0 (17007,0), 2 CTAs running
GPGPU-Sim uArch: core:  3, cta: 0 initialized @(17008,0)
GPGPU-Sim uArch: Shader 1 finished CTA #0 (17023,0), 2 CTAs running
GPGPU-Sim uArch: core:  1, cta: 0 initialized @(17024,0)
GPGPU-Sim uArch: Shader 11 finished CTA #0 (17028,0), 2 CTAs running
GPGPU-Sim uArch: core: 11, cta: 0 initialized @(17029,0)
GPGPU-Sim PTX: 9600000 instructions simulated : ctaid=(131,0,0) tid=(357,0,0)
GPGPU-Sim uArch: Shader 5 finished CTA #0 (17144,0), 2 CTAs running
GPGPU-Sim uArch: core:  5, cta: 0 initialized @(17145,0)
GPGPU-Sim PTX: 9700000 instructions simulated : ctaid=(105,0,0) tid=(342,0,0)
GPGPU-Sim uArch: Shader 0 finished CTA #0 (17347,0), 2 CTAs running
GPGPU-Sim uArch: core:  0, cta: 0 initialized @(17348,0)
GPGPU-Sim uArch: Shader 8 finished CTA #0 (17348,0), 2 CTAs running
GPGPU-Sim uArch: core:  8, cta: 0 initialized @(17349,0)
GPGPU-Sim uArch: Shader 4 finished CTA #0 (17471,0), 2 CTAs running
GPGPU-Sim uArch: core:  4, cta: 0 initialized @(17472,0)
GPGPU-Sim uArch: Shader 2 finished CTA #0 (17475,0), 2 CTAs running
GPGPU-Sim uArch: core:  2, cta: 0 initialized @(17476,0)
GPGPU-Sim PTX: 9800000 instructions simulated : ctaid=(137,0,0) tid=(73,0,0)
GPGPU-Sim uArch: cycles simulated: 17500  inst.: 9416476 (ipc=538.1) sim_rate=247802 (inst/sec) elapsed = 0:0:00:38 / Tue Jan 29 23:18:22 2019
GPGPU-Sim uArch: Shader 6 finished CTA #0 (17650,0), 2 CTAs running
GPGPU-Sim uArch: core:  6, cta: 0 initialized @(17651,0)
GPGPU-Sim PTX: 9900000 instructions simulated : ctaid=(108,0,0) tid=(355,0,0)
GPGPU-Sim uArch: Shader 9 finished CTA #0 (17690,0), 2 CTAs running
GPGPU-Sim uArch: core:  9, cta: 0 initialized @(17691,0)
GPGPU-Sim uArch: Shader 10 finished CTA #0 (17699,0), 2 CTAs running
GPGPU-Sim uArch: core: 10, cta: 0 initialized @(17700,0)
GPGPU-Sim uArch: Shader 14 finished CTA #0 (17717,0), 2 CTAs running
GPGPU-Sim uArch: core: 14, cta: 0 initialized @(17718,0)
GPGPU-Sim uArch: Shader 12 finished CTA #0 (17757,0), 2 CTAs running
GPGPU-Sim uArch: core: 12, cta: 0 initialized @(17758,0)
GPGPU-Sim uArch: Shader 13 finished CTA #0 (17775,0), 2 CTAs running
GPGPU-Sim uArch: core: 13, cta: 0 initialized @(17776,0)
GPGPU-Sim uArch: Shader 7 finished CTA #0 (17792,0), 2 CTAs running
GPGPU-Sim uArch: core:  7, cta: 0 initialized @(17793,0)
GPGPU-Sim PTX: 10000000 instructions simulated : ctaid=(145,0,0) tid=(243,0,0)
GPGPU-Sim PTX: 10100000 instructions simulated : ctaid=(149,0,0) tid=(331,0,0)
GPGPU-Sim uArch: cycles simulated: 18000  inst.: 9700673 (ipc=538.9) sim_rate=248735 (inst/sec) elapsed = 0:0:00:39 / Tue Jan 29 23:18:23 2019
GPGPU-Sim PTX: 10200000 instructions simulated : ctaid=(126,0,0) tid=(364,0,0)
GPGPU-Sim PTX: 10300000 instructions simulated : ctaid=(133,0,0) tid=(225,0,0)
GPGPU-Sim PTX: 10400000 instructions simulated : ctaid=(113,0,0) tid=(425,0,0)
GPGPU-Sim uArch: cycles simulated: 18500  inst.: 10024909 (ipc=541.9) sim_rate=250622 (inst/sec) elapsed = 0:0:00:40 / Tue Jan 29 23:18:24 2019
GPGPU-Sim PTX: 10500000 instructions simulated : ctaid=(128,0,0) tid=(475,0,0)
GPGPU-Sim PTX: 10600000 instructions simulated : ctaid=(105,0,0) tid=(223,0,0)
GPGPU-Sim PTX: 10700000 instructions simulated : ctaid=(122,0,0) tid=(207,0,0)
GPGPU-Sim uArch: Shader 11 finished CTA #1 (18976,0), 2 CTAs running
GPGPU-Sim uArch: core: 11, cta: 1 initialized @(18977,0)
GPGPU-Sim uArch: Shader 8 finished CTA #1 (18990,0), 2 CTAs running
GPGPU-Sim uArch: core:  8, cta: 1 initialized @(18991,0)
GPGPU-Sim uArch: cycles simulated: 19000  inst.: 10325066 (ipc=543.4) sim_rate=251830 (inst/sec) elapsed = 0:0:00:41 / Tue Jan 29 23:18:25 2019
GPGPU-Sim PTX: 10800000 instructions simulated : ctaid=(144,0,0) tid=(439,0,0)
GPGPU-Sim uArch: Shader 3 finished CTA #1 (19111,0), 2 CTAs running
GPGPU-Sim uArch: core:  3, cta: 1 initialized @(19112,0)
GPGPU-Sim uArch: Shader 1 finished CTA #1 (19231,0), 2 CTAs running
GPGPU-Sim uArch: core:  1, cta: 1 initialized @(19232,0)
GPGPU-Sim PTX: 10900000 instructions simulated : ctaid=(127,0,0) tid=(27,0,0)
GPGPU-Sim uArch: Shader 0 finished CTA #1 (19295,0), 2 CTAs running
GPGPU-Sim uArch: core:  0, cta: 1 initialized @(19296,0)
GPGPU-Sim uArch: Shader 9 finished CTA #1 (19300,0), 2 CTAs running
GPGPU-Sim uArch: core:  9, cta: 1 initialized @(19301,0)
GPGPU-Sim uArch: Shader 2 finished CTA #1 (19361,0), 2 CTAs running
GPGPU-Sim uArch: Shader 5 finished CTA #1 (19361,0), 2 CTAs running
GPGPU-Sim uArch: core:  2, cta: 1 initialized @(19362,0)
GPGPU-Sim uArch: core:  5, cta: 1 initialized @(19362,0)
GPGPU-Sim uArch: Shader 4 finished CTA #1 (19395,0), 2 CTAs running
GPGPU-Sim uArch: core:  4, cta: 1 initialized @(19396,0)
GPGPU-Sim PTX: 11000000 instructions simulated : ctaid=(157,0,0) tid=(384,0,0)
GPGPU-Sim uArch: Shader 14 finished CTA #1 (19481,0), 2 CTAs running
GPGPU-Sim uArch: core: 14, cta: 1 initialized @(19482,0)
GPGPU-Sim uArch: cycles simulated: 19500  inst.: 10605683 (ipc=543.9) sim_rate=246643 (inst/sec) elapsed = 0:0:00:43 / Tue Jan 29 23:18:27 2019
GPGPU-Sim uArch: Shader 10 finished CTA #1 (19506,0), 2 CTAs running
GPGPU-Sim uArch: core: 10, cta: 1 initialized @(19507,0)
GPGPU-Sim PTX: 11100000 instructions simulated : ctaid=(129,0,0) tid=(324,0,0)
GPGPU-Sim uArch: Shader 6 finished CTA #1 (19654,0), 2 CTAs running
GPGPU-Sim uArch: core:  6, cta: 1 initialized @(19655,0)
GPGPU-Sim uArch: Shader 13 finished CTA #1 (19666,0), 2 CTAs running
GPGPU-Sim uArch: core: 13, cta: 1 initialized @(19667,0)
GPGPU-Sim uArch: Shader 7 finished CTA #1 (19681,0), 2 CTAs running
GPGPU-Sim uArch: core:  7, cta: 1 initialized @(19682,0)
GPGPU-Sim uArch: Shader 12 finished CTA #1 (19692,0), 2 CTAs running
GPGPU-Sim uArch: core: 12, cta: 1 initialized @(19693,0)
GPGPU-Sim PTX: 11200000 instructions simulated : ctaid=(136,0,0) tid=(178,0,0)
GPGPU-Sim PTX: 11300000 instructions simulated : ctaid=(139,0,0) tid=(256,0,0)
GPGPU-Sim uArch: cycles simulated: 20000  inst.: 10921830 (ipc=546.1) sim_rate=248223 (inst/sec) elapsed = 0:0:00:44 / Tue Jan 29 23:18:28 2019
GPGPU-Sim PTX: 11400000 instructions simulated : ctaid=(144,0,0) tid=(248,0,0)
GPGPU-Sim PTX: 11500000 instructions simulated : ctaid=(136,0,0) tid=(117,0,0)
GPGPU-Sim PTX: 11600000 instructions simulated : ctaid=(164,0,0) tid=(33,0,0)
GPGPU-Sim uArch: cycles simulated: 20500  inst.: 11233057 (ipc=548.0) sim_rate=249623 (inst/sec) elapsed = 0:0:00:45 / Tue Jan 29 23:18:29 2019
GPGPU-Sim PTX: 11700000 instructions simulated : ctaid=(124,0,0) tid=(52,0,0)
GPGPU-Sim PTX: 11800000 instructions simulated : ctaid=(139,0,0) tid=(346,0,0)
GPGPU-Sim PTX: 11900000 instructions simulated : ctaid=(126,0,0) tid=(103,0,0)
GPGPU-Sim uArch: Shader 8 finished CTA #2 (20928,0), 2 CTAs running
GPGPU-Sim uArch: core:  8, cta: 2 initialized @(20929,0)
GPGPU-Sim uArch: Shader 3 finished CTA #2 (20963,0), 2 CTAs running
GPGPU-Sim uArch: core:  3, cta: 2 initialized @(20964,0)
GPGPU-Sim PTX: 12000000 instructions simulated : ctaid=(165,0,0) tid=(258,0,0)
GPGPU-Sim uArch: Shader 5 finished CTA #2 (20991,0), 2 CTAs running
GPGPU-Sim uArch: core:  5, cta: 2 initialized @(20992,0)
GPGPU-Sim uArch: cycles simulated: 21000  inst.: 11534160 (ipc=549.2) sim_rate=250742 (inst/sec) elapsed = 0:0:00:46 / Tue Jan 29 23:18:30 2019
GPGPU-Sim uArch: Shader 1 finished CTA #2 (21111,0), 2 CTAs running
GPGPU-Sim uArch: core:  1, cta: 2 initialized @(21112,0)
GPGPU-Sim uArch: Shader 0 finished CTA #2 (21139,0), 2 CTAs running
GPGPU-Sim uArch: core:  0, cta: 2 initialized @(21140,0)
GPGPU-Sim uArch: Shader 4 finished CTA #2 (21141,0), 2 CTAs running
GPGPU-Sim uArch: core:  4, cta: 2 initialized @(21142,0)
GPGPU-Sim PTX: 12100000 instructions simulated : ctaid=(151,0,0) tid=(400,0,0)
GPGPU-Sim uArch: Shader 11 finished CTA #2 (21184,0), 2 CTAs running
GPGPU-Sim uArch: core: 11, cta: 2 initialized @(21185,0)
GPGPU-Sim PTX: 12200000 instructions simulated : ctaid=(157,0,0) tid=(405,0,0)
GPGPU-Sim uArch: Shader 2 finished CTA #2 (21372,0), 2 CTAs running
GPGPU-Sim uArch: core:  2, cta: 2 initialized @(21373,0)
GPGPU-Sim uArch: Shader 12 finished CTA #2 (21397,0), 2 CTAs running
GPGPU-Sim uArch: core: 12, cta: 2 initialized @(21398,0)
GPGPU-Sim uArch: Shader 7 finished CTA #2 (21407,0), 2 CTAs running
GPGPU-Sim uArch: core:  7, cta: 2 initialized @(21408,0)
GPGPU-Sim uArch: Shader 9 finished CTA #2 (21445,0), 2 CTAs running
GPGPU-Sim uArch: core:  9, cta: 2 initialized @(21446,0)
GPGPU-Sim PTX: 12300000 instructions simulated : ctaid=(145,0,0) tid=(208,0,0)
GPGPU-Sim uArch: cycles simulated: 21500  inst.: 11811595 (ipc=549.4) sim_rate=251310 (inst/sec) elapsed = 0:0:00:47 / Tue Jan 29 23:18:31 2019
GPGPU-Sim uArch: Shader 6 finished CTA #2 (21504,0), 2 CTAs running
GPGPU-Sim uArch: core:  6, cta: 2 initialized @(21505,0)
GPGPU-Sim PTX: 12400000 instructions simulated : ctaid=(138,0,0) tid=(54,0,0)
GPGPU-Sim uArch: Shader 10 finished CTA #2 (21698,0), 2 CTAs running
GPGPU-Sim uArch: core: 10, cta: 2 initialized @(21699,0)
GPGPU-Sim uArch: Shader 14 finished CTA #2 (21707,0), 2 CTAs running
GPGPU-Sim uArch: core: 14, cta: 2 initialized @(21708,0)
GPGPU-Sim uArch: Shader 13 finished CTA #2 (21708,0), 2 CTAs running
GPGPU-Sim uArch: core: 13, cta: 2 initialized @(21709,0)
GPGPU-Sim PTX: 12500000 instructions simulated : ctaid=(151,0,0) tid=(326,0,0)
GPGPU-Sim PTX: 12600000 instructions simulated : ctaid=(144,0,0) tid=(425,0,0)
GPGPU-Sim uArch: cycles simulated: 22000  inst.: 12128230 (ipc=551.3) sim_rate=252671 (inst/sec) elapsed = 0:0:00:48 / Tue Jan 29 23:18:32 2019
GPGPU-Sim PTX: 12700000 instructions simulated : ctaid=(179,0,0) tid=(197,0,0)
GPGPU-Sim PTX: 12800000 instructions simulated : ctaid=(164,0,0) tid=(58,0,0)
GPGPU-Sim PTX: 12900000 instructions simulated : ctaid=(158,0,0) tid=(15,0,0)
GPGPU-Sim uArch: cycles simulated: 22500  inst.: 12443184 (ipc=553.0) sim_rate=253942 (inst/sec) elapsed = 0:0:00:49 / Tue Jan 29 23:18:33 2019
GPGPU-Sim PTX: 13000000 instructions simulated : ctaid=(141,0,0) tid=(367,0,0)
GPGPU-Sim uArch: Shader 3 finished CTA #0 (22724,0), 2 CTAs running
GPGPU-Sim uArch: core:  3, cta: 0 initialized @(22725,0)
GPGPU-Sim PTX: 13100000 instructions simulated : ctaid=(162,0,0) tid=(230,0,0)
GPGPU-Sim uArch: Shader 11 finished CTA #0 (22902,0), 2 CTAs running
GPGPU-Sim uArch: core: 11, cta: 0 initialized @(22903,0)
GPGPU-Sim PTX: 13200000 instructions simulated : ctaid=(142,0,0) tid=(117,0,0)
GPGPU-Sim uArch: cycles simulated: 23000  inst.: 12727141 (ipc=553.4) sim_rate=254542 (inst/sec) elapsed = 0:0:00:50 / Tue Jan 29 23:18:34 2019
GPGPU-Sim uArch: Shader 8 finished CTA #0 (23005,0), 2 CTAs running
GPGPU-Sim uArch: core:  8, cta: 0 initialized @(23006,0)
GPGPU-Sim uArch: Shader 1 finished CTA #0 (23015,0), 2 CTAs running
GPGPU-Sim uArch: core:  1, cta: 0 initialized @(23016,0)
GPGPU-Sim uArch: Shader 0 finished CTA #0 (23035,0), 2 CTAs running
GPGPU-Sim uArch: core:  0, cta: 0 initialized @(23036,0)
GPGPU-Sim uArch: Shader 5 finished CTA #0 (23057,0), 2 CTAs running
GPGPU-Sim uArch: core:  5, cta: 0 initialized @(23058,0)
GPGPU-Sim PTX: 13300000 instructions simulated : ctaid=(167,0,0) tid=(369,0,0)
GPGPU-Sim uArch: Shader 4 finished CTA #0 (23225,0), 2 CTAs running
GPGPU-Sim uArch: core:  4, cta: 0 initialized @(23226,0)
GPGPU-Sim PTX: 13400000 instructions simulated : ctaid=(160,0,0) tid=(458,0,0)
GPGPU-Sim uArch: Shader 6 finished CTA #0 (23248,0), 2 CTAs running
GPGPU-Sim uArch: core:  6, cta: 0 initialized @(23249,0)
GPGPU-Sim uArch: Shader 9 finished CTA #0 (23384,0), 2 CTAs running
GPGPU-Sim uArch: core:  9, cta: 0 initialized @(23385,0)
GPGPU-Sim uArch: Shader 10 finished CTA #0 (23396,0), 2 CTAs running
GPGPU-Sim uArch: core: 10, cta: 0 initialized @(23397,0)
GPGPU-Sim PTX: 13500000 instructions simulated : ctaid=(148,0,0) tid=(420,0,0)
GPGPU-Sim uArch: Shader 2 finished CTA #0 (23413,0), 2 CTAs running
GPGPU-Sim uArch: core:  2, cta: 0 initialized @(23414,0)
GPGPU-Sim uArch: cycles simulated: 23500  inst.: 13028350 (ipc=554.4) sim_rate=255457 (inst/sec) elapsed = 0:0:00:51 / Tue Jan 29 23:18:35 2019
GPGPU-Sim uArch: Shader 7 finished CTA #0 (23548,0), 2 CTAs running
GPGPU-Sim uArch: core:  7, cta: 0 initialized @(23549,0)
GPGPU-Sim PTX: 13600000 instructions simulated : ctaid=(164,0,0) tid=(363,0,0)
GPGPU-Sim uArch: Shader 12 finished CTA #0 (23594,0), 2 CTAs running
GPGPU-Sim uArch: core: 12, cta: 0 initialized @(23595,0)
GPGPU-Sim uArch: Shader 14 finished CTA #0 (23633,0), 2 CTAs running
GPGPU-Sim uArch: core: 14, cta: 0 initialized @(23634,0)
GPGPU-Sim uArch: Shader 13 finished CTA #0 (23642,0), 2 CTAs running
GPGPU-Sim uArch: core: 13, cta: 0 initialized @(23643,0)
GPGPU-Sim PTX: 13700000 instructions simulated : ctaid=(150,0,0) tid=(212,0,0)
GPGPU-Sim PTX: 13800000 instructions simulated : ctaid=(180,0,0) tid=(355,0,0)
GPGPU-Sim uArch: cycles simulated: 24000  inst.: 13330688 (ipc=555.4) sim_rate=256359 (inst/sec) elapsed = 0:0:00:52 / Tue Jan 29 23:18:36 2019
GPGPU-Sim PTX: 13900000 instructions simulated : ctaid=(152,0,0) tid=(368,0,0)
GPGPU-Sim PTX: 14000000 instructions simulated : ctaid=(166,0,0) tid=(500,0,0)
GPGPU-Sim PTX: 14100000 instructions simulated : ctaid=(178,0,0) tid=(351,0,0)
GPGPU-Sim PTX: 14200000 instructions simulated : ctaid=(160,0,0) tid=(222,0,0)
GPGPU-Sim uArch: cycles simulated: 24500  inst.: 13650782 (ipc=557.2) sim_rate=257561 (inst/sec) elapsed = 0:0:00:53 / Tue Jan 29 23:18:37 2019
GPGPU-Sim PTX: 14300000 instructions simulated : ctaid=(183,0,0) tid=(217,0,0)
GPGPU-Sim uArch: Shader 11 finished CTA #1 (24752,0), 2 CTAs running
GPGPU-Sim uArch: core: 11, cta: 1 initialized @(24753,0)
GPGPU-Sim uArch: Shader 3 finished CTA #1 (24765,0), 2 CTAs running
GPGPU-Sim uArch: core:  3, cta: 1 initialized @(24766,0)
GPGPU-Sim PTX: 14400000 instructions simulated : ctaid=(165,0,0) tid=(220,0,0)
GPGPU-Sim uArch: Shader 8 finished CTA #1 (24907,0), 2 CTAs running
GPGPU-Sim uArch: core:  8, cta: 1 initialized @(24908,0)
GPGPU-Sim uArch: Shader 1 finished CTA #1 (24955,0), 2 CTAs running
GPGPU-Sim uArch: core:  1, cta: 1 initialized @(24956,0)
GPGPU-Sim PTX: 14500000 instructions simulated : ctaid=(165,0,0) tid=(64,0,0)
GPGPU-Sim uArch: cycles simulated: 25000  inst.: 13938857 (ipc=557.6) sim_rate=258126 (inst/sec) elapsed = 0:0:00:54 / Tue Jan 29 23:18:38 2019
GPGPU-Sim uArch: Shader 0 finished CTA #1 (25030,0), 2 CTAs running
GPGPU-Sim uArch: core:  0, cta: 1 initialized @(25031,0)
GPGPU-Sim uArch: Shader 5 finished CTA #1 (25061,0), 2 CTAs running
GPGPU-Sim uArch: core:  5, cta: 1 initialized @(25062,0)
GPGPU-Sim PTX: 14600000 instructions simulated : ctaid=(185,0,0) tid=(444,0,0)
GPGPU-Sim uArch: Shader 2 finished CTA #1 (25320,0), 2 CTAs running
GPGPU-Sim uArch: core:  2, cta: 1 initialized @(25321,0)
GPGPU-Sim PTX: 14700000 instructions simulated : ctaid=(175,0,0) tid=(165,0,0)
GPGPU-Sim uArch: Shader 9 finished CTA #1 (25378,0), 2 CTAs running
GPGPU-Sim uArch: core:  9, cta: 1 initialized @(25379,0)
GPGPU-Sim uArch: Shader 4 finished CTA #1 (25394,0), 2 CTAs running
GPGPU-Sim uArch: core:  4, cta: 1 initialized @(25395,0)
GPGPU-Sim uArch: Shader 12 finished CTA #1 (25466,0), 2 CTAs running
GPGPU-Sim uArch: core: 12, cta: 1 initialized @(25467,0)
GPGPU-Sim uArch: Shader 6 finished CTA #1 (25481,0), 2 CTAs running
GPGPU-Sim uArch: core:  6, cta: 1 initialized @(25482,0)
GPGPU-Sim uArch: cycles simulated: 25500  inst.: 14215143 (ipc=557.5) sim_rate=258457 (inst/sec) elapsed = 0:0:00:55 / Tue Jan 29 23:18:39 2019
GPGPU-Sim PTX: 14800000 instructions simulated : ctaid=(199,0,0) tid=(398,0,0)
GPGPU-Sim uArch: Shader 14 finished CTA #1 (25532,0), 2 CTAs running
GPGPU-Sim uArch: core: 14, cta: 1 initialized @(25533,0)
GPGPU-Sim uArch: Shader 7 finished CTA #1 (25606,0), 2 CTAs running
GPGPU-Sim uArch: core:  7, cta: 1 initialized @(25607,0)
GPGPU-Sim uArch: Shader 10 finished CTA #1 (25619,0), 2 CTAs running
GPGPU-Sim uArch: core: 10, cta: 1 initialized @(25620,0)
GPGPU-Sim uArch: Shader 13 finished CTA #1 (25638,0), 2 CTAs running
GPGPU-Sim uArch: core: 13, cta: 1 initialized @(25639,0)
GPGPU-Sim PTX: 14900000 instructions simulated : ctaid=(191,0,0) tid=(479,0,0)
GPGPU-Sim PTX: 15000000 instructions simulated : ctaid=(175,0,0) tid=(232,0,0)
GPGPU-Sim PTX: 15100000 instructions simulated : ctaid=(199,0,0) tid=(220,0,0)
GPGPU-Sim uArch: cycles simulated: 26000  inst.: 14535431 (ipc=559.1) sim_rate=259561 (inst/sec) elapsed = 0:0:00:56 / Tue Jan 29 23:18:40 2019
GPGPU-Sim PTX: 15200000 instructions simulated : ctaid=(180,0,0) tid=(420,0,0)
GPGPU-Sim PTX: 15300000 instructions simulated : ctaid=(191,0,0) tid=(158,0,0)
GPGPU-Sim PTX: 15400000 instructions simulated : ctaid=(200,0,0) tid=(265,0,0)
GPGPU-Sim uArch: cycles simulated: 26500  inst.: 14852374 (ipc=560.5) sim_rate=256075 (inst/sec) elapsed = 0:0:00:58 / Tue Jan 29 23:18:42 2019
GPGPU-Sim PTX: 15500000 instructions simulated : ctaid=(166,0,0) tid=(348,0,0)
GPGPU-Sim PTX: 15600000 instructions simulated : ctaid=(172,0,0) tid=(441,0,0)
GPGPU-Sim uArch: Shader 3 finished CTA #2 (26761,0), 2 CTAs running
GPGPU-Sim uArch: core:  3, cta: 2 initialized @(26762,0)
GPGPU-Sim uArch: Shader 11 finished CTA #2 (26796,0), 2 CTAs running
GPGPU-Sim uArch: core: 11, cta: 2 initialized @(26797,0)
GPGPU-Sim uArch: Shader 4 finished CTA #2 (26902,0), 2 CTAs running
GPGPU-Sim uArch: core:  4, cta: 2 initialized @(26903,0)
GPGPU-Sim PTX: 15700000 instructions simulated : ctaid=(172,0,0) tid=(180,0,0)
GPGPU-Sim uArch: Shader 8 finished CTA #2 (26979,0), 2 CTAs running
GPGPU-Sim uArch: core:  8, cta: 2 initialized @(26980,0)
GPGPU-Sim uArch: Shader 5 finished CTA #2 (27018,0), 2 CTAs running
GPGPU-Sim uArch: core:  5, cta: 2 initialized @(27019,0)
GPGPU-Sim uArch: Shader 1 finished CTA #2 (27050,0), 2 CTAs running
GPGPU-Sim uArch: core:  1, cta: 2 initialized @(27051,0)
GPGPU-Sim uArch: Shader 0 finished CTA #2 (27057,0), 2 CTAs running
GPGPU-Sim uArch: core:  0, cta: 2 initialized @(27058,0)
GPGPU-Sim PTX: 15800000 instructions simulated : ctaid=(207,0,0) tid=(413,0,0)
GPGPU-Sim uArch: Shader 9 finished CTA #2 (27190,0), 2 CTAs running
GPGPU-Sim uArch: core:  9, cta: 2 initialized @(27191,0)
GPGPU-Sim uArch: Shader 2 finished CTA #2 (27191,0), 2 CTAs running
GPGPU-Sim uArch: core:  2, cta: 2 initialized @(27192,0)
GPGPU-Sim PTX: 15900000 instructions simulated : ctaid=(217,0,0) tid=(366,0,0)
GPGPU-Sim uArch: Shader 6 finished CTA #2 (27341,0), 2 CTAs running
GPGPU-Sim uArch: core:  6, cta: 2 initialized @(27342,0)
GPGPU-Sim PTX: 16000000 instructions simulated : ctaid=(219,0,0) tid=(129,0,0)
GPGPU-Sim uArch: Shader 10 finished CTA #2 (27456,0), 2 CTAs running
GPGPU-Sim uArch: core: 10, cta: 2 initialized @(27457,0)
GPGPU-Sim uArch: Shader 12 finished CTA #2 (27468,0), 2 CTAs running
GPGPU-Sim uArch: core: 12, cta: 2 initialized @(27469,0)
GPGPU-Sim uArch: Shader 14 finished CTA #2 (27492,0), 2 CTAs running
GPGPU-Sim uArch: core: 14, cta: 2 initialized @(27493,0)
GPGPU-Sim uArch: cycles simulated: 27500  inst.: 15421584 (ipc=560.8) sim_rate=257026 (inst/sec) elapsed = 0:0:01:00 / Tue Jan 29 23:18:44 2019
GPGPU-Sim uArch: Shader 7 finished CTA #2 (27512,0), 2 CTAs running
GPGPU-Sim uArch: core:  7, cta: 2 initialized @(27513,0)
GPGPU-Sim PTX: 16100000 instructions simulated : ctaid=(180,0,0) tid=(101,0,0)
GPGPU-Sim uArch: Shader 13 finished CTA #2 (27582,0), 2 CTAs running
GPGPU-Sim uArch: core: 13, cta: 2 initialized @(27583,0)
GPGPU-Sim PTX: 16200000 instructions simulated : ctaid=(200,0,0) tid=(245,0,0)
GPGPU-Sim PTX: 16300000 instructions simulated : ctaid=(217,0,0) tid=(111,0,0)
GPGPU-Sim uArch: cycles simulated: 28000  inst.: 15734021 (ipc=561.9) sim_rate=257934 (inst/sec) elapsed = 0:0:01:01 / Tue Jan 29 23:18:45 2019
GPGPU-Sim PTX: 16400000 instructions simulated : ctaid=(218,0,0) tid=(92,0,0)
GPGPU-Sim PTX: 16500000 instructions simulated : ctaid=(197,0,0) tid=(223,0,0)
GPGPU-Sim PTX: 16600000 instructions simulated : ctaid=(185,0,0) tid=(17,0,0)
GPGPU-Sim PTX: 16700000 instructions simulated : ctaid=(199,0,0) tid=(327,0,0)
GPGPU-Sim uArch: cycles simulated: 28500  inst.: 16049993 (ipc=563.2) sim_rate=258870 (inst/sec) elapsed = 0:0:01:02 / Tue Jan 29 23:18:46 2019
GPGPU-Sim PTX: 16800000 instructions simulated : ctaid=(202,0,0) tid=(64,0,0)
GPGPU-Sim uArch: Shader 3 finished CTA #0 (28768,0), 2 CTAs running
GPGPU-Sim uArch: core:  3, cta: 0 initialized @(28769,0)
GPGPU-Sim PTX: 16900000 instructions simulated : ctaid=(225,0,0) tid=(426,0,0)
GPGPU-Sim uArch: Shader 0 finished CTA #0 (28909,0), 2 CTAs running
GPGPU-Sim uArch: core:  0, cta: 0 initialized @(28910,0)
GPGPU-Sim uArch: Shader 11 finished CTA #0 (28916,0), 2 CTAs running
GPGPU-Sim uArch: core: 11, cta: 0 initialized @(28917,0)
GPGPU-Sim uArch: Shader 5 finished CTA #0 (28983,0), 2 CTAs running
GPGPU-Sim uArch: core:  5, cta: 0 initialized @(28984,0)
GPGPU-Sim PTX: 17000000 instructions simulated : ctaid=(226,0,0) tid=(235,0,0)
GPGPU-Sim uArch: cycles simulated: 29000  inst.: 16343075 (ipc=563.6) sim_rate=259413 (inst/sec) elapsed = 0:0:01:03 / Tue Jan 29 23:18:47 2019
GPGPU-Sim uArch: Shader 8 finished CTA #0 (29008,0), 2 CTAs running
GPGPU-Sim uArch: core:  8, cta: 0 initialized @(29009,0)
GPGPU-Sim uArch: Shader 1 finished CTA #0 (29040,0), 2 CTAs running
GPGPU-Sim uArch: core:  1, cta: 0 initialized @(29041,0)
GPGPU-Sim uArch: Shader 6 finished CTA #0 (29086,0), 2 CTAs running
GPGPU-Sim uArch: core:  6, cta: 0 initialized @(29087,0)
GPGPU-Sim uArch: Shader 4 finished CTA #0 (29124,0), 2 CTAs running
GPGPU-Sim uArch: core:  4, cta: 0 initialized @(29125,0)
GPGPU-Sim PTX: 17100000 instructions simulated : ctaid=(209,0,0) tid=(297,0,0)
GPGPU-Sim uArch: Shader 9 finished CTA #0 (29221,0), 2 CTAs running
GPGPU-Sim uArch: core:  9, cta: 0 initialized @(29222,0)
GPGPU-Sim uArch: Shader 2 finished CTA #0 (29224,0), 2 CTAs running
GPGPU-Sim uArch: core:  2, cta: 0 initialized @(29225,0)
GPGPU-Sim uArch: Shader 7 finished CTA #0 (29244,0), 2 CTAs running
GPGPU-Sim uArch: core:  7, cta: 0 initialized @(29245,0)
GPGPU-Sim uArch: Shader 10 finished CTA #0 (29310,0), 2 CTAs running
GPGPU-Sim uArch: core: 10, cta: 0 initialized @(29311,0)
GPGPU-Sim PTX: 17200000 instructions simulated : ctaid=(207,0,0) tid=(250,0,0)
GPGPU-Sim uArch: Shader 12 finished CTA #0 (29483,0), 2 CTAs running
GPGPU-Sim uArch: core: 12, cta: 0 initialized @(29484,0)
GPGPU-Sim PTX: 17300000 instructions simulated : ctaid=(214,0,0) tid=(424,0,0)
GPGPU-Sim uArch: cycles simulated: 29500  inst.: 16626881 (ipc=563.6) sim_rate=259795 (inst/sec) elapsed = 0:0:01:04 / Tue Jan 29 23:18:48 2019
GPGPU-Sim uArch: Shader 14 finished CTA #0 (29503,0), 2 CTAs running
GPGPU-Sim uArch: core: 14, cta: 0 initialized @(29504,0)
GPGPU-Sim uArch: Shader 13 finished CTA #0 (29604,0), 2 CTAs running
GPGPU-Sim uArch: core: 13, cta: 0 initialized @(29605,0)
GPGPU-Sim PTX: 17400000 instructions simulated : ctaid=(218,0,0) tid=(334,0,0)
GPGPU-Sim PTX: 17500000 instructions simulated : ctaid=(221,0,0) tid=(244,0,0)
GPGPU-Sim PTX: 17600000 instructions simulated : ctaid=(219,0,0) tid=(18,0,0)
GPGPU-Sim uArch: cycles simulated: 30000  inst.: 16940093 (ipc=564.7) sim_rate=260616 (inst/sec) elapsed = 0:0:01:05 / Tue Jan 29 23:18:49 2019
GPGPU-Sim PTX: 17700000 instructions simulated : ctaid=(220,0,0) tid=(242,0,0)
GPGPU-Sim PTX: 17800000 instructions simulated : ctaid=(219,0,0) tid=(381,0,0)
GPGPU-Sim PTX: 17900000 instructions simulated : ctaid=(197,0,0) tid=(446,0,0)
GPGPU-Sim uArch: cycles simulated: 30500  inst.: 17254340 (ipc=565.7) sim_rate=261429 (inst/sec) elapsed = 0:0:01:06 / Tue Jan 29 23:18:50 2019
GPGPU-Sim PTX: 18000000 instructions simulated : ctaid=(201,0,0) tid=(261,0,0)
GPGPU-Sim uArch: Shader 11 finished CTA #1 (30675,0), 2 CTAs running
GPGPU-Sim uArch: core: 11, cta: 1 initialized @(30676,0)
GPGPU-Sim PTX: 18100000 instructions simulated : ctaid=(235,0,0) tid=(503,0,0)
GPGPU-Sim uArch: Shader 3 finished CTA #1 (30751,0), 2 CTAs running
GPGPU-Sim uArch: core:  3, cta: 1 initialized @(30752,0)
GPGPU-Sim uArch: Shader 5 finished CTA #1 (30863,0), 2 CTAs running
GPGPU-Sim uArch: core:  5, cta: 1 initialized @(30864,0)
GPGPU-Sim PTX: 18200000 instructions simulated : ctaid=(210,0,0) tid=(473,0,0)
GPGPU-Sim uArch: Shader 0 finished CTA #1 (30933,0), 2 CTAs running
GPGPU-Sim uArch: core:  0, cta: 1 initialized @(30934,0)
GPGPU-Sim uArch: Shader 8 finished CTA #1 (30943,0), 2 CTAs running
GPGPU-Sim uArch: core:  8, cta: 1 initialized @(30944,0)
GPGPU-Sim uArch: cycles simulated: 31000  inst.: 17542626 (ipc=565.9) sim_rate=261830 (inst/sec) elapsed = 0:0:01:07 / Tue Jan 29 23:18:51 2019
GPGPU-Sim uArch: Shader 1 finished CTA #1 (31061,0), 2 CTAs running
GPGPU-Sim uArch: core:  1, cta: 1 initialized @(31062,0)
GPGPU-Sim PTX: 18300000 instructions simulated : ctaid=(208,0,0) tid=(450,0,0)
GPGPU-Sim uArch: Shader 9 finished CTA #1 (31221,0), 2 CTAs running
GPGPU-Sim uArch: core:  9, cta: 1 initialized @(31222,0)
GPGPU-Sim PTX: 18400000 instructions simulated : ctaid=(228,0,0) tid=(300,0,0)
GPGPU-Sim uArch: Shader 2 finished CTA #1 (31291,0), 2 CTAs running
GPGPU-Sim uArch: core:  2, cta: 1 initialized @(31292,0)
GPGPU-Sim uArch: Shader 4 finished CTA #1 (31311,0), 2 CTAs running
GPGPU-Sim uArch: Shader 6 finished CTA #1 (31311,0), 2 CTAs running
GPGPU-Sim uArch: core:  4, cta: 1 initialized @(31312,0)
GPGPU-Sim uArch: core:  6, cta: 1 initialized @(31312,0)
GPGPU-Sim uArch: Shader 10 finished CTA #1 (31420,0), 2 CTAs running
GPGPU-Sim uArch: core: 10, cta: 1 initialized @(31421,0)
GPGPU-Sim PTX: 18500000 instructions simulated : ctaid=(250,0,0) tid=(124,0,0)
GPGPU-Sim uArch: Shader 7 finished CTA #1 (31472,0), 2 CTAs running
GPGPU-Sim uArch: core:  7, cta: 1 initialized @(31473,0)
GPGPU-Sim uArch: cycles simulated: 31500  inst.: 17824746 (ipc=565.9) sim_rate=262128 (inst/sec) elapsed = 0:0:01:08 / Tue Jan 29 23:18:52 2019
GPGPU-Sim uArch: Shader 14 finished CTA #1 (31513,0), 2 CTAs running
GPGPU-Sim uArch: core: 14, cta: 1 initialized @(31514,0)
GPGPU-Sim uArch: Shader 13 finished CTA #1 (31525,0), 2 CTAs running
GPGPU-Sim uArch: core: 13, cta: 1 initialized @(31526,0)
GPGPU-Sim uArch: Shader 12 finished CTA #1 (31527,0), 2 CTAs running
GPGPU-Sim uArch: core: 12, cta: 1 initialized @(31528,0)
GPGPU-Sim PTX: 18600000 instructions simulated : ctaid=(222,0,0) tid=(159,0,0)
GPGPU-Sim PTX: 18700000 instructions simulated : ctaid=(228,0,0) tid=(306,0,0)
GPGPU-Sim PTX: 18800000 instructions simulated : ctaid=(235,0,0) tid=(381,0,0)
GPGPU-Sim uArch: cycles simulated: 32000  inst.: 18139936 (ipc=566.9) sim_rate=262897 (inst/sec) elapsed = 0:0:01:09 / Tue Jan 29 23:18:53 2019
GPGPU-Sim PTX: 18900000 instructions simulated : ctaid=(215,0,0) tid=(232,0,0)
GPGPU-Sim PTX: 19000000 instructions simulated : ctaid=(226,0,0) tid=(447,0,0)
GPGPU-Sim PTX: 19100000 instructions simulated : ctaid=(215,0,0) tid=(275,0,0)
GPGPU-Sim PTX: 19200000 instructions simulated : ctaid=(236,0,0) tid=(487,0,0)
GPGPU-Sim uArch: cycles simulated: 32500  inst.: 18461687 (ipc=568.1) sim_rate=263738 (inst/sec) elapsed = 0:0:01:10 / Tue Jan 29 23:18:54 2019
GPGPU-Sim PTX: 19300000 instructions simulated : ctaid=(215,0,0) tid=(39,0,0)
GPGPU-Sim uArch: Shader 11 finished CTA #2 (32691,0), 2 CTAs running
GPGPU-Sim uArch: core: 11, cta: 2 initialized @(32692,0)
GPGPU-Sim uArch: Shader 3 finished CTA #2 (32742,0), 2 CTAs running
GPGPU-Sim uArch: core:  3, cta: 2 initialized @(32743,0)
GPGPU-Sim PTX: 19400000 instructions simulated : ctaid=(256,0,0) tid=(249,0,0)
GPGPU-Sim uArch: Shader 5 finished CTA #2 (32901,0), 2 CTAs running
GPGPU-Sim uArch: core:  5, cta: 2 initialized @(32902,0)
GPGPU-Sim uArch: Shader 0 finished CTA #2 (32986,0), 2 CTAs running
GPGPU-Sim uArch: core:  0, cta: 2 initialized @(32987,0)
GPGPU-Sim uArch: cycles simulated: 33000  inst.: 18737034 (ipc=567.8) sim_rate=263901 (inst/sec) elapsed = 0:0:01:11 / Tue Jan 29 23:18:55 2019
GPGPU-Sim uArch: Shader 1 finished CTA #2 (33011,0), 2 CTAs running
GPGPU-Sim uArch: core:  1, cta: 2 initialized @(33012,0)
GPGPU-Sim PTX: 19500000 instructions simulated : ctaid=(223,0,0) tid=(19,0,0)
GPGPU-Sim uArch: Shader 8 finished CTA #2 (33036,0), 2 CTAs running
GPGPU-Sim uArch: core:  8, cta: 2 initialized @(33037,0)
GPGPU-Sim uArch: Shader 4 finished CTA #2 (33049,0), 2 CTAs running
GPGPU-Sim uArch: core:  4, cta: 2 initialized @(33050,0)
GPGPU-Sim uArch: Shader 6 finished CTA #2 (33062,0), 2 CTAs running
GPGPU-Sim uArch: core:  6, cta: 2 initialized @(33063,0)
GPGPU-Sim uArch: Shader 2 finished CTA #2 (33159,0), 2 CTAs running
GPGPU-Sim uArch: core:  2, cta: 2 initialized @(33160,0)
GPGPU-Sim uArch: Shader 12 finished CTA #2 (33176,0), 2 CTAs running
GPGPU-Sim uArch: core: 12, cta: 2 initialized @(33177,0)
GPGPU-Sim PTX: 19600000 instructions simulated : ctaid=(236,0,0) tid=(277,0,0)
GPGPU-Sim uArch: Shader 9 finished CTA #2 (33254,0), 2 CTAs running
GPGPU-Sim uArch: core:  9, cta: 2 initialized @(33255,0)
GPGPU-Sim uArch: Shader 10 finished CTA #2 (33289,0), 2 CTAs running
GPGPU-Sim uArch: core: 10, cta: 2 initialized @(33290,0)
GPGPU-Sim PTX: 19700000 instructions simulated : ctaid=(239,0,0) tid=(149,0,0)
GPGPU-Sim uArch: Shader 7 finished CTA #2 (33434,0), 2 CTAs running
GPGPU-Sim uArch: core:  7, cta: 2 initialized @(33435,0)
GPGPU-Sim uArch: Shader 13 finished CTA #2 (33492,0), 2 CTAs running
GPGPU-Sim uArch: Shader 14 finished CTA #2 (33492,0), 2 CTAs running
GPGPU-Sim uArch: core: 13, cta: 2 initialized @(33493,0)
GPGPU-Sim uArch: core: 14, cta: 2 initialized @(33493,0)
GPGPU-Sim uArch: cycles simulated: 33500  inst.: 19026009 (ipc=567.9) sim_rate=264250 (inst/sec) elapsed = 0:0:01:12 / Tue Jan 29 23:18:56 2019
GPGPU-Sim PTX: 19800000 instructions simulated : ctaid=(241,0,0) tid=(35,0,0)
GPGPU-Sim PTX: 19900000 instructions simulated : ctaid=(244,0,0) tid=(454,0,0)
GPGPU-Sim PTX: 20000000 instructions simulated : ctaid=(253,0,0) tid=(426,0,0)
GPGPU-Sim PTX: 20100000 instructions simulated : ctaid=(258,0,0) tid=(88,0,0)
GPGPU-Sim uArch: cycles simulated: 34000  inst.: 19348066 (ipc=569.1) sim_rate=265042 (inst/sec) elapsed = 0:0:01:13 / Tue Jan 29 23:18:57 2019
GPGPU-Sim PTX: 20200000 instructions simulated : ctaid=(250,0,0) tid=(172,0,0)
GPGPU-Sim PTX: 20300000 instructions simulated : ctaid=(239,0,0) tid=(124,0,0)
GPGPU-Sim PTX: 20400000 instructions simulated : ctaid=(236,0,0) tid=(86,0,0)
GPGPU-Sim uArch: cycles simulated: 34500  inst.: 19663103 (ipc=569.9) sim_rate=265717 (inst/sec) elapsed = 0:0:01:14 / Tue Jan 29 23:18:58 2019
GPGPU-Sim uArch: Shader 8 finished CTA #0 (34501,0), 2 CTAs running
GPGPU-Sim uArch: core:  8, cta: 0 initialized @(34502,0)
GPGPU-Sim PTX: 20500000 instructions simulated : ctaid=(245,0,0) tid=(349,0,0)
GPGPU-Sim uArch: Shader 1 finished CTA #0 (34657,0), 2 CTAs running
GPGPU-Sim uArch: core:  1, cta: 0 initialized @(34658,0)
GPGPU-Sim uArch: Shader 3 finished CTA #0 (34693,0), 2 CTAs running
GPGPU-Sim uArch: core:  3, cta: 0 initialized @(34694,0)
GPGPU-Sim PTX: 20600000 instructions simulated : ctaid=(237,0,0) tid=(185,0,0)
GPGPU-Sim uArch: Shader 0 finished CTA #0 (34885,0), 2 CTAs running
GPGPU-Sim uArch: core:  0, cta: 0 initialized @(34886,0)
GPGPU-Sim uArch: Shader 5 finished CTA #0 (34898,0), 2 CTAs running
GPGPU-Sim uArch: core:  5, cta: 0 initialized @(34899,0)
GPGPU-Sim PTX: 20700000 instructions simulated : ctaid=(252,0,0) tid=(410,0,0)
GPGPU-Sim uArch: Shader 4 finished CTA #0 (34932,0), 2 CTAs running
GPGPU-Sim uArch: core:  4, cta: 0 initialized @(34933,0)
GPGPU-Sim uArch: Shader 11 finished CTA #0 (34971,0), 2 CTAs running
GPGPU-Sim uArch: core: 11, cta: 0 initialized @(34972,0)
GPGPU-Sim uArch: Shader 7 finished CTA #0 (34997,0), 2 CTAs running
GPGPU-Sim uArch: core:  7, cta: 0 initialized @(34998,0)
GPGPU-Sim uArch: cycles simulated: 35000  inst.: 19943814 (ipc=569.8) sim_rate=265917 (inst/sec) elapsed = 0:0:01:15 / Tue Jan 29 23:18:59 2019
GPGPU-Sim uArch: Shader 6 finished CTA #0 (35056,0), 2 CTAs running
GPGPU-Sim uArch: core:  6, cta: 0 initialized @(35057,0)
GPGPU-Sim PTX: 20800000 instructions simulated : ctaid=(249,0,0) tid=(79,0,0)
GPGPU-Sim uArch: Shader 2 finished CTA #0 (35124,0), 2 CTAs running
GPGPU-Sim uArch: core:  2, cta: 0 initialized @(35125,0)
GPGPU-Sim uArch: Shader 12 finished CTA #0 (35202,0), 2 CTAs running
GPGPU-Sim uArch: core: 12, cta: 0 initialized @(35203,0)
GPGPU-Sim uArch: Shader 9 finished CTA #0 (35250,0), 2 CTAs running
GPGPU-Sim PTX: 20900000 instructions simulated : ctaid=(252,0,0) tid=(332,0,0)
GPGPU-Sim uArch: core:  9, cta: 0 initialized @(35251,0)
GPGPU-Sim uArch: Shader 10 finished CTA #0 (35317,0), 2 CTAs running
GPGPU-Sim uArch: core: 10, cta: 0 initialized @(35318,0)
GPGPU-Sim uArch: Shader 13 finished CTA #0 (35334,0), 2 CTAs running
[...]
gpgpu_stall_shd_mem[g_mem_st][wb_rsrv_fail] = 0
gpgpu_stall_shd_mem[l_mem_ld][mshr_rc] = 0
gpgpu_stall_shd_mem[l_mem_ld][icnt_rc] = 0
gpgpu_stall_shd_mem[l_mem_ld][wb_icnt_rc] = 0
gpgpu_stall_shd_mem[l_mem_ld][wb_rsrv_fail] = 0
gpgpu_stall_shd_mem[l_mem_st][mshr_rc] = 0
gpgpu_stall_shd_mem[l_mem_st][icnt_rc] = 0
gpgpu_stall_shd_mem[l_mem_ld][wb_icnt_rc] = 0
gpgpu_stall_shd_mem[l_mem_ld][wb_rsrv_fail] = 0
gpu_reg_bank_conflict_stalls = 0
Warp Occupancy Distribution:
Stall:157125	W0_Idle:44274	W0_Scoreboard:295621	W1:363444	W2:187584	W3:0	W4:187584	W5:0	W6:0	W7:0	W8:187584	W9:0	W10:0	W11:0	W12:0	W13:0	W14:0	W15:0	W16:187584	W17:0	W18:0	W19:0	W20:0	W21:0	W22:0	W23:0	W24:0	W25:0	W26:0	W27:0	W28:0	W29:0	W30:0	W31:0	W32:2313466
traffic_breakdown_coretomem[CONST_ACC_R] = 120 {8:15,}
traffic_breakdown_coretomem[GLOBAL_ACC_R] = 250000 {8:31250,}
traffic_breakdown_coretomem[GLOBAL_ACC_W] = 625280 {40:15632,}
traffic_breakdown_coretomem[INST_ACC_R] = 600 {8:75,}
traffic_breakdown_memtocore[CONST_ACC_R] = 1080 {72:15,}
traffic_breakdown_memtocore[GLOBAL_ACC_R] = 4250000 {136:31250,}
traffic_breakdown_memtocore[GLOBAL_ACC_W] = 125056 {8:15632,}
traffic_breakdown_memtocore[INST_ACC_R] = 10200 {136:75,}
maxmrqlatency = 173 
maxdqlatency = 0 
maxmflatency = 825 
averagemflatency = 247 
max_icnt2mem_latency = 670 
max_icnt2sh_latency = 131921 
mrq_lat_table:28939 	1024 	370 	357 	354 	222 	143 	25 	0 	0 	0 	0 	0 	0 	0 	0 	0 	0 	0 	0 	0 	0 	0 	0 	0 	0 	0 	0 	0 	0 	0 	0 	
dq_lat_table:0 	0 	0 	0 	0 	0 	0 	0 	0 	0 	0 	0 	0 	0 	0 	0 	0 	0 	0 	0 	0 	0 	0 	0 	0 	0 	0 	0 	0 	0 	0 	0 	
mf_lat_table:0 	0 	0 	0 	0 	0 	0 	13445 	32739 	713 	0 	0 	0 	0 	0 	0 	0 	0 	0 	0 	0 	0 	0 	0 	0 	0 	0 	0 	0 	0 	0 	0 	
icnt2mem_lat_table:0 	0 	0 	34343 	4218 	3729 	2959 	1203 	466 	54 	0 	0 	0 	0 	0 	0 	0 	0 	0 	0 	0 	0 	0 	0 	
icnt2sh_lat_table:0 	0 	0 	23861 	6344 	932 	128 	0 	0 	0 	0 	0 	480 	960 	1954 	4046 	8151 	41 	0 	0 	0 	0 	0 	0 	
mf_lat_pw_table:0 	0 	0 	0 	0 	0 	0 	182 	72 	1 	0 	0 	0 	0 	0 	0 	0 	0 	0 	0 	0 	0 	0 	0 	0 	0 	0 	0 	0 	0 	0 	0 	
maximum concurrent accesses to same row:
dram[0]:        32        32        32        32        32        32        32        32        32        32        32        32        32        32        32        32 
dram[1]:        32        32        32        32        32        32        32        32        32        32        32        32        32        32        32        32 
dram[2]:        32        32        32        32        32        32        32        32        32        32        32        32        32        32        32        32 
dram[3]:        32        32        32        32        32        32        32        32        32        32        32        32        32        32        32        32 
dram[4]:        32        32        32        32        32        32        32        32        32        32        32        32        32        32        32        32 
dram[5]:        32        32        32        32        32        32        32        32        32        32        32        32        32        32        32        32 
maximum service time to same row:
dram[0]:     13301     13316     13428     13314     13874     13686     13234     12984     13175     13344     14375     14525     16151     16365     13187     13411 
dram[1]:     13365     13218     13360     13326     13864     13719     13192     13011     13203     13300     14381     14746     16228     16422     13209     13412 
dram[2]:     13348     13385     13390     13203     13748     13666     13321     13069     13187     13257     14557     14629     16322     16341     13182     13145 
dram[3]:     13350     13469     13334     13139     13737     13656     13281     13091     13266     13055     14650     14621     16338     16476     13069     13246 
dram[4]:     13285     13331     13215     13158     13699     13672     13215     13080     13332     13107     14493     14656     16137     16476     13264     13151 
dram[5]:     13315     13347     13306     13072     13695     13512     13098     13244     13321     13107     14497     14653     16350     16495     13378     13211 
average row accesses per activate:
dram[0]: 24.846153 32.000000 32.000000 32.000000 30.000000 30.000000 32.000000 32.000000 26.076923 25.692308 32.000000 32.000000 32.000000 32.000000 32.000000 32.000000 
dram[1]: 29.272728 32.000000 32.000000 32.000000 30.000000 30.000000 32.000000 32.000000 23.857143 22.266666 32.000000 32.000000 32.000000 32.000000 32.000000 32.000000 
dram[2]: 29.181818 32.000000 32.000000 32.000000 30.000000 30.181818 32.000000 32.000000 22.266666 27.750000 32.000000 32.000000 32.000000 32.000000 32.000000 32.000000 
dram[3]: 32.000000 32.000000 32.000000 32.000000 30.000000 30.181818 32.000000 32.000000 25.692308 26.307692 32.000000 32.000000 32.000000 32.000000 32.000000 32.000000 
dram[4]: 32.000000 32.000000 32.000000 32.000000 30.000000 30.181818 32.000000 32.000000 20.875000 20.117647 32.000000 32.000000 32.000000 32.000000 32.000000 32.000000 
dram[5]: 32.000000 32.000000 32.000000 32.000000 30.000000 30.181818 32.000000 32.000000 22.266666 22.799999 32.000000 32.000000 32.000000 32.000000 32.000000 32.000000 
average row locality = 31434/1040 = 30.225000
number of total memory accesses made:
dram[0]:         0         0         0         0         0         0         0         0         0         0         0         0         0         0         0         0 
dram[1]:         0         0         0         0         0         0         0         0         0         0         0         0         0         0         0         0 
dram[2]:         0         0         0         0         0         0         0         0         0         0         0         0         0         0         0         0 
dram[3]:         0         0         0         0         0         0         0         0         0         0         0         0         0         0         0         0 
dram[4]:         0         0         0         0         0         0         0         0         0         0         0         0         0         0         0         0 
dram[5]:         0         0         0         0         0         0         0         0         0         0         0         0         0         0         0         0 
total accesses: 0
min_bank_accesses = 0!
min_chip_accesses = 0!
number of total read accesses:
dram[0]:       323       320       320       320       330       330       352       352       325       324       320       320       320       320       320       320 
dram[1]:       322       320       320       320       330       330       352       352       324       324       320       320       320       320       320       320 
dram[2]:       321       320       320       320       330       332       352       352       324       324       320       320       320       320       320       320 
dram[3]:       320       320       320       320       330       332       352       352       324       324       320       320       320       320       320       320 
dram[4]:       320       320       320       320       330       332       352       352       324       324       320       320       320       320       320       320 
dram[5]:       320       320       320       320       330       332       352       352       324       324       320       320       320       320       320       320 
total reads: 31287
bank skew: 352/320 = 1.10
chip skew: 5216/5214 = 1.00
number of total write accesses:
dram[0]:         0         0         0         0         0         0         0         0        14        10         0         0         0         0         0         0 
dram[1]:         0         0         0         0         0         0         0         0        10        10         0         0         0         0         0         0 
dram[2]:         0         0         0         0         0         0         0         0        10         9         0         0         0         0         0         0 
dram[3]:         0         0         0         0         0         0         0         0        10        18         0         0         0         0         0         0 
dram[4]:         0         0         0         0         0         0         0         0        10        18         0         0         0         0         0         0 
dram[5]:         0         0         0         0         0         0         0         0        10        18         0         0         0         0         0         0 
total reads: 147
min_bank_accesses = 0!
chip skew: 28/19 = 1.47
average mf latency per bank:
dram[0]:        282       273       261       264       264       265       280       280       983       775       278       278       275       274       272       274
dram[1]:        272       275       261       263       265       266       279       284       859       809       281       282       278       279       272       273
dram[2]:        275       272       262       262       267       264       286       278       858       794       285       274       279       271       273       271
dram[3]:        279       275       262       263       267       267       280       282       794      1787       276       278       276       274       277       277
dram[4]:        272       276       261       262       265       267       281       285       788      1418       280       284       277       273       269       278
dram[5]:        274       275       262       263       264       267       287       285       830      1361       280       285       279       275       273       276
maximum mf latency per bank:
dram[0]:        698       731       299       368       471       417       594       561       588       471       619       624       682       567       643       740
dram[1]:        736       812       326       321       493       479       646       655       622       469       638       575       701       649       636       636
dram[2]:        750       706       336       339       491       425       662       575       639       446       674       568       729       598       749       736
dram[3]:        725       809       344       339       545       495       637       687       583       825       501       547       715       683       714       710
dram[4]:        740       768       309       327       432       439       679       625       691       462       601       620       732       678       709       677
dram[5]:        745       763       315       325       483       407       683       671       657       533       631       597       719       606       731       688
Memory Partition 0: 
Cache L2_bank_000:
MSHR contents

Cache L2_bank_001:
MSHR contents

In Dram Latency Queue (total = 0): 
DRAM[0]: 16 bks, busW=4 BL=8 CL=12, tRRD=2 tCCD=6, tRCD=12 tRAS=28 tRP=12 tRC=40
n_cmd=174136 n_nop=163346 n_act=173 n_pre=157 n_req=5240 n_rd=10432 n_write=28 bw_util=0.1201
n_activity=64621 dram_eff=0.3237
bk0: 646a 172385i bk1: 640a 172311i bk2: 640a 172417i bk3: 640a 172265i bk4: 660a 172283i bk5: 660a 172174i bk6: 704a 172068i bk7: 704a 171782i bk8: 650a 172129i bk9: 648a 171919i bk10: 640a 172070i bk11: 640a 171721i bk12: 640a 171921i bk13: 640a 171677i bk14: 640a 172380i bk15: 640a 172240i 
dram_util_bins: 0 0 0 0 0 0 0 0 0 0
dram_eff_bins: 0 0 0 0 0 0 0 0 0 0
mrqq: max=16 avg=0.0509027
Memory Partition 1: 
Cache L2_bank_002:
MSHR contents

Cache L2_bank_003:
MSHR contents

In Dram Latency Queue (total = 0): 
DRAM[1]: 16 bks, busW=4 BL=8 CL=12, tRRD=2 tCCD=6, tRCD=12 tRAS=28 tRP=12 tRC=40
n_cmd=174136 n_nop=163352 n_act=174 n_pre=158 n_req=5234 n_rd=10428 n_write=24 bw_util=0.12
n_activity=65042 dram_eff=0.3214
bk0: 644a 172437i bk1: 640a 172285i bk2: 640a 172451i bk3: 640a 172252i bk4: 660a 172364i bk5: 660a 172237i bk6: 704a 172098i bk7: 704a 171794i bk8: 648a 172188i bk9: 648a 172024i bk10: 640a 171943i bk11: 640a 171697i bk12: 640a 171973i bk13: 640a 171648i bk14: 640a 172405i bk15: 640a 172245i 
dram_util_bins: 0 0 0 0 0 0 0 0 0 0
dram_eff_bins: 0 0 0 0 0 0 0 0 0 0
mrqq: max=16 avg=0.045855
Memory Partition 2: 
Cache L2_bank_004:
MSHR contents

Cache L2_bank_005:
MSHR contents

In Dram Latency Queue (total = 0): 
DRAM[2]: 16 bks, busW=4 BL=8 CL=12, tRRD=2 tCCD=6, tRCD=12 tRAS=28 tRP=12 tRC=40
n_cmd=174136 n_nop=163356 n_act=172 n_pre=156 n_req=5234 n_rd=10430 n_write=22 bw_util=0.12
n_activity=64084 dram_eff=0.3262
bk0: 642a 172468i bk1: 640a 172314i bk2: 640a 172446i bk3: 640a 172317i bk4: 660a 172353i bk5: 664a 172151i bk6: 704a 172101i bk7: 704a 171742i bk8: 648a 172126i bk9: 648a 171889i bk10: 640a 171909i bk11: 640a 171789i bk12: 640a 171959i bk13: 640a 171891i bk14: 640a 172417i bk15: 640a 172262i 
dram_util_bins: 0 0 0 0 0 0 0 0 0 0
dram_eff_bins: 0 0 0 0 0 0 0 0 0 0
mrqq: max=16 avg=0.0529701
Memory Partition 3: 
Cache L2_bank_006:
MSHR contents

Cache L2_bank_007:
MSHR contents

In Dram Latency Queue (total = 0): 
DRAM[3]: 16 bks, busW=4 BL=8 CL=12, tRRD=2 tCCD=6, tRCD=12 tRAS=28 tRP=12 tRC=40
n_cmd=174136 n_nop=163352 n_act=170 n_pre=154 n_req=5242 n_rd=10428 n_write=32 bw_util=0.1201
n_activity=64607 dram_eff=0.3238
bk0: 640a 172490i bk1: 640a 172365i bk2: 640a 172472i bk3: 640a 172308i bk4: 660a 172316i bk5: 664a 172154i bk6: 704a 172132i bk7: 704a 171650i bk8: 648a 172202i bk9: 648a 171998i bk10: 640a 172159i bk11: 640a 171816i bk12: 640a 172153i bk13: 640a 171962i bk14: 640a 172376i bk15: 640a 172183i 
dram_util_bins: 0 0 0 0 0 0 0 0 0 0
dram_eff_bins: 0 0 0 0 0 0 0 0 0 0
mrqq: max=16 avg=0.0438106
Memory Partition 4: 
Cache L2_bank_008:
MSHR contents

Cache L2_bank_009:
MSHR contents

In Dram Latency Queue (total = 0): 
DRAM[4]: 16 bks, busW=4 BL=8 CL=12, tRRD=2 tCCD=6, tRCD=12 tRAS=28 tRP=12 tRC=40
n_cmd=174136 n_nop=163338 n_act=177 n_pre=161 n_req=5242 n_rd=10428 n_write=32 bw_util=0.1201
n_activity=64303 dram_eff=0.3253
bk0: 640a 172458i bk1: 640a 172329i bk2: 640a 172390i bk3: 640a 172303i bk4: 660a 172249i bk5: 664a 172132i bk6: 704a 172053i bk7: 704a 171625i bk8: 648a 172065i bk9: 648a 171984i bk10: 640a 171969i bk11: 640a 171713i bk12: 640a 171891i bk13: 640a 171954i bk14: 640a 172352i bk15: 640a 172284i 
dram_util_bins: 0 0 0 0 0 0 0 0 0 0
dram_eff_bins: 0 0 0 0 0 0 0 0 0 0
mrqq: max=16 avg=0.0569095
Memory Partition 5: 
Cache L2_bank_010:
MSHR contents

Cache L2_bank_011:
MSHR contents

In Dram Latency Queue (total = 0): 
DRAM[5]: 16 bks, busW=4 BL=8 CL=12, tRRD=2 tCCD=6, tRCD=12 tRAS=28 tRP=12 tRC=40
n_cmd=174136 n_nop=163344 n_act=174 n_pre=158 n_req=5242 n_rd=10428 n_write=32 bw_util=0.1201
n_activity=64841 dram_eff=0.3226
bk0: 640a 172434i bk1: 640a 172340i bk2: 640a 172412i bk3: 640a 172306i bk4: 660a 172296i bk5: 664a 172180i bk6: 704a 172051i bk7: 704a 171792i bk8: 648a 172052i bk9: 648a 171917i bk10: 640a 172016i bk11: 640a 171670i bk12: 640a 171785i bk13: 640a 171913i bk14: 640a 172341i bk15: 640a 172259i 
dram_util_bins: 0 0 0 0 0 0 0 0 0 0
dram_eff_bins: 0 0 0 0 0 0 0 0 0 0
mrqq: max=16 avg=0.0569497

========= L2 cache stats =========
L2_cache_bank[0]: Access = 3945, Miss = 2610, Miss_rate = 0.662, Pending_hits = 18, Reservation_fails = 686
L2_cache_bank[1]: Access = 3628, Miss = 2606, Miss_rate = 0.718, Pending_hits = 6, Reservation_fails = 266
L2_cache_bank[2]: Access = 3658, Miss = 2608, Miss_rate = 0.713, Pending_hits = 11, Reservation_fails = 355
L2_cache_bank[3]: Access = 3628, Miss = 2606, Miss_rate = 0.718, Pending_hits = 6, Reservation_fails = 267
L2_cache_bank[4]: Access = 3643, Miss = 2607, Miss_rate = 0.716, Pending_hits = 9, Reservation_fails = 290
L2_cache_bank[5]: Access = 3630, Miss = 2608, Miss_rate = 0.718, Pending_hits = 6, Reservation_fails = 309
L2_cache_bank[6]: Access = 3628, Miss = 2606, Miss_rate = 0.718, Pending_hits = 6, Reservation_fails = 247
L2_cache_bank[7]: Access = 4652, Miss = 2608, Miss_rate = 0.561, Pending_hits = 12, Reservation_fails = 550
L2_cache_bank[8]: Access = 3628, Miss = 2606, Miss_rate = 0.718, Pending_hits = 6, Reservation_fails = 358
L2_cache_bank[9]: Access = 4652, Miss = 2608, Miss_rate = 0.561, Pending_hits = 12, Reservation_fails = 568
L2_cache_bank[10]: Access = 3628, Miss = 2606, Miss_rate = 0.718, Pending_hits = 6, Reservation_fails = 283
L2_cache_bank[11]: Access = 4652, Miss = 2608, Miss_rate = 0.561, Pending_hits = 12, Reservation_fails = 488
L2_total_cache_accesses = 46972
L2_total_cache_misses = 31287
L2_total_cache_miss_rate = 0.6661
L2_total_cache_pending_hits = 110
L2_total_cache_reservation_fails = 4667
L2_total_cache_breakdown:
	L2_cache_stats_breakdown[GLOBAL_ACC_R][MISS] = 31250
	L2_cache_stats_breakdown[GLOBAL_ACC_R][RESERVATION_FAIL] = 580
	L2_cache_stats_breakdown[CONST_ACC_R][HIT] = 11
	L2_cache_stats_breakdown[CONST_ACC_R][HIT_RESERVED] = 3
	L2_cache_stats_breakdown[CONST_ACC_R][MISS] = 1
	L2_cache_stats_breakdown[CONST_ACC_R][RESERVATION_FAIL] = 102
	L2_cache_stats_breakdown[GLOBAL_ACC_W][HIT] = 15508
	L2_cache_stats_breakdown[GLOBAL_ACC_W][HIT_RESERVED] = 93
	L2_cache_stats_breakdown[GLOBAL_ACC_W][MISS] = 31
	L2_cache_stats_breakdown[GLOBAL_ACC_W][RESERVATION_FAIL] = 3580
	L2_cache_stats_breakdown[INST_ACC_R][HIT] = 56
	L2_cache_stats_breakdown[INST_ACC_R][HIT_RESERVED] = 14
	L2_cache_stats_breakdown[INST_ACC_R][MISS] = 5
	L2_cache_stats_breakdown[INST_ACC_R][RESERVATION_FAIL] = 405
L2_cache_data_port_util = 0.010
L2_cache_fill_port_util = 0.079

icnt_total_pkts_mem_to_simt=172302
icnt_total_pkts_simt_to_mem=62604
LD_mem_lat_dist  0 0 0 0 0 0 0 0 0 0 0 0 0 0 0 0 0 0 0 0 0 0 0 0 0 0 0
ST_mem_lat_dist  0 0 0 0 0 0 0 0 0 0 0 0 0 0 0 0 0 0 0 0 0 0 0 0 0 0 0
----------------------------Interconnect-DETAILS--------------------------------
Class 0:
Packet latency average = 16.0794
	minimum = 6
	maximum = 463
Network latency average = 12.8092
	minimum = 6
	maximum = 316
Slowest packet = 3109
Flit latency average = 10.7154
	minimum = 6
	maximum = 315
Slowest flit = 14942
Fragmentation average = 0.00623776
	minimum = 0
	maximum = 114
Injected packet rate average = 0.0263747
	minimum = 0.0236958 (at node 0)
	maximum = 0.0352633 (at node 22)
Accepted packet rate average = 0.0263747
	minimum = 0.0236958 (at node 0)
	maximum = 0.0352633 (at node 22)
Injected flit rate average = 0.0659497
	minimum = 0.0315793 (at node 0)
	maximum = 0.114219 (at node 22)
Accepted flit rate average= 0.0659497
	minimum = 0.0352633 (at node 16)
	maximum = 0.0882643 (at node 3)
Injected packet length average = 2.50049
Accepted packet length average = 2.50049
Total in-flight flits = 0 (0 measured)
====== Overall Traffic Statistics ======
====== Traffic class 0 ======
Packet latency average = 16.0794 (1 samples)
	minimum = 6 (1 samples)
	maximum = 463 (1 samples)
Network latency average = 12.8092 (1 samples)
	minimum = 6 (1 samples)
	maximum = 316 (1 samples)
Flit latency average = 10.7154 (1 samples)
	minimum = 6 (1 samples)
	maximum = 315 (1 samples)
Fragmentation average = 0.00623776 (1 samples)
	minimum = 0 (1 samples)
	maximum = 114 (1 samples)
Injected packet rate average = 0.0263747 (1 samples)
	minimum = 0.0236958 (1 samples)
	maximum = 0.0352633 (1 samples)
Accepted packet rate average = 0.0263747 (1 samples)
	minimum = 0.0236958 (1 samples)
	maximum = 0.0352633 (1 samples)
Injected flit rate average = 0.0659497 (1 samples)
	minimum = 0.0315793 (1 samples)
	maximum = 0.114219 (1 samples)
Accepted flit rate average = 0.0659497 (1 samples)
	minimum = 0.0352633 (1 samples)
	maximum = 0.0882643 (1 samples)
Injected packet size average = 2.50049 (1 samples)
Accepted packet size average = 2.50049 (1 samples)
Hops average = 1 (1 samples)
----------------------------END-of-Interconnect-DETAILS-------------------------


gpgpu_simulation_time = 0 days, 0 hrs, 4 min, 39 sec (279 sec)
gpgpu_simulation_rate = 276064 (inst/sec)
gpgpu_simulation_rate = 472 (cycle/sec)
278.582947 s
Copying data from device to host...0.000386 s
Verifying results...TEST PASSED

